100781
  -OEChem-10012202122D

 60 64  0     1  0  0  0  0  0999 V2000
    5.4583    3.2788    0.0000 O   0  0  0  0  0  0  0  0  0  0  0  0
    3.0809   -1.7984    0.0000 O   0  0  0  0  0  0  0  0  0  0  0  0
    3.9696    4.2479    0.0000 O   0  0  0  0  0  0  0  0  0  0  0  0
    2.0000   -3.2152    0.0000 O   0  0  0  0  0  0  0  0  0  0  0  0
    5.5278   -0.6638    0.0000 N   0  0  3  0  0  0  0  0  0  0  0  0
    4.8014    0.8070    0.0000 C   0  0  1  0  0  0  0  0  0  0  0  0
    5.6675    0.3070    0.0000 C   0  0  1  0  0  0  0  0  0  0  0  0
    4.8014    1.8070    0.0000 C   0  0  2  0  0  0  0  0  0  0  0  0
    6.5335    0.8070    0.0000 C   0  0  1  0  0  0  0  0  0  0  0  0
    6.5335    1.8070    0.0000 C   0  0  2  0  0  0  0  0  0  0  0  0
    5.6675    2.3070    0.0000 C   0  0  2  0  0  0  0  0  0  0  0  0
    4.1088    0.1015    0.0000 C   0  0  0  0  0  0  0  0  0  0  0  0
    4.5466   -0.7849    0.0000 C   0  0  1  0  0  0  0  0  0  0  0  0
    4.0644    2.4741    0.0000 C   0  0  1  0  0  0  0  0  0  0  0  0
    7.4441    0.4426    0.0000 C   0  0  0  0  0  0  0  0  0  0  0  0
    6.1978   -1.3801    0.0000 C   0  0  0  0  0  0  0  0  0  0  0  0
    4.0719   -1.6651    0.0000 C   0  0  2  0  0  0  0  0  0  0  0  0
    7.3995    2.3070    0.0000 C   0  0  0  0  0  0  0  0  0  0  0  0
    7.7294   -0.4958    0.0000 C   0  0  0  0  0  0  0  0  0  0  0  0
    7.1758   -1.3054    0.0000 C   0  0  0  0  0  0  0  0  0  0  0  0
    4.4696    3.3819    0.0000 C   0  0  0  0  0  0  0  0  0  0  0  0
    4.5050   -2.5664    0.0000 C   0  0  0  0  0  0  0  0  0  0  0  0
    3.0859    2.2679    0.0000 C   0  0  0  0  0  0  0  0  0  0  0  0
    7.3995    3.3070    0.0000 C   0  0  0  0  0  0  0  0  0  0  0  0
    3.7815   -3.2568    0.0000 C   0  0  1  0  0  0  0  0  0  0  0  0
    2.9014   -2.7821    0.0000 C   0  0  0  0  0  0  0  0  0  0  0  0
    3.9148   -4.2479    0.0000 C   0  0  0  0  0  0  0  0  0  0  0  0
    4.0147    1.1287    0.0000 H   0  0  0  0  0  0  0  0  0  0  0  0
    6.4036   -0.1180    0.0000 H   0  0  0  0  0  0  0  0  0  0  0  0
    4.0245    1.4623    0.0000 H   0  0  0  0  0  0  0  0  0  0  0  0
    7.2374    1.2835    0.0000 H   0  0  0  0  0  0  0  0  0  0  0  0
    6.5335    2.4270    0.0000 H   0  0  0  0  0  0  0  0  0  0  0  0
    6.3545    2.8075    0.0000 H   0  0  0  0  0  0  0  0  0  0  0  0
    3.7177    0.5826    0.0000 H   0  0  0  0  0  0  0  0  0  0  0  0
    3.5871   -0.2334    0.0000 H   0  0  0  0  0  0  0  0  0  0  0  0
    3.6968   -0.7697    0.0000 H   0  0  0  0  0  0  0  0  0  0  0  0
    3.6749    2.9564    0.0000 H   0  0  0  0  0  0  0  0  0  0  0  0
    8.0626    0.4858    0.0000 H   0  0  0  0  0  0  0  0  0  0  0  0
    7.5400    1.0551    0.0000 H   0  0  0  0  0  0  0  0  0  0  0  0
    5.6619   -1.6917    0.0000 H   0  0  0  0  0  0  0  0  0  0  0  0
    6.3819   -1.9721    0.0000 H   0  0  0  0  0  0  0  0  0  0  0  0
    3.5885   -0.9659    0.0000 H   0  0  0  0  0  0  0  0  0  0  0  0
    7.6116    1.7244    0.0000 H   0  0  0  0  0  0  0  0  0  0  0  0
    8.0101    2.4147    0.0000 H   0  0  0  0  0  0  0  0  0  0  0  0
    8.1501   -0.9513    0.0000 H   0  0  0  0  0  0  0  0  0  0  0  0
    8.2673   -0.1875    0.0000 H   0  0  0  0  0  0  0  0  0  0  0  0
    7.0836   -1.9186    0.0000 H   0  0  0  0  0  0  0  0  0  0  0  0
    7.7528   -1.5322    0.0000 H   0  0  0  0  0  0  0  0  0  0  0  0
    4.8838   -3.0573    0.0000 H   0  0  0  0  0  0  0  0  0  0  0  0
    5.0327   -2.2410    0.0000 H   0  0  0  0  0  0  0  0  0  0  0  0
    2.9581    2.8746    0.0000 H   0  0  0  0  0  0  0  0  0  0  0  0
    2.4793    2.1400    0.0000 H   0  0  0  0  0  0  0  0  0  0  0  0
    3.2138    1.6612    0.0000 H   0  0  0  0  0  0  0  0  0  0  0  0
    8.0195    3.3070    0.0000 H   0  0  0  0  0  0  0  0  0  0  0  0
    7.3995    3.9270    0.0000 H   0  0  0  0  0  0  0  0  0  0  0  0
    6.7795    3.3070    0.0000 H   0  0  0  0  0  0  0  0  0  0  0  0
    3.2716   -3.6094    0.0000 H   0  0  0  0  0  0  0  0  0  0  0  0
    3.3004   -4.3306    0.0000 H   0  0  0  0  0  0  0  0  0  0  0  0
    3.9975   -4.8624    0.0000 H   0  0  0  0  0  0  0  0  0  0  0  0
    4.5293   -4.1653    0.0000 H   0  0  0  0  0  0  0  0  0  0  0  0
  1 11  1  0  0  0  0
  1 21  1  0  0  0  0
  2 17  1  0  0  0  0
  2 26  1  0  0  0  0
  3 21  2  0  0  0  0
  4 26  2  0  0  0  0
  5  7  1  0  0  0  0
  5 13  1  0  0  0  0
  5 16  1  0  0  0  0
  6  7  1  0  0  0  0
  6  8  1  0  0  0  0
  6 12  1  0  0  0  0
  6 28  1  1  0  0  0
  7  9  1  0  0  0  0
  7 29  1  6  0  0  0
  8 11  1  0  0  0  0
  8 14  1  0  0  0  0
  8 30  1  6  0  0  0
  9 10  1  0  0  0  0
  9 15  1  0  0  0  0
  9 31  1  6  0  0  0
 10 11  1  0  0  0  0
 10 18  1  6  0  0  0
 10 32  1  0  0  0  0
 11 33  1  6  0  0  0
 12 13  1  0  0  0  0
 12 34  1  0  0  0  0
 12 35  1  0  0  0  0
 13 17  1  0  0  0  0
 13 36  1  1  0  0  0
 14 21  1  0  0  0  0
 14 23  1  6  0  0  0
 14 37  1  0  0  0  0
 15 19  1  0  0  0  0
 15 38  1  0  0  0  0
 15 39  1  0  0  0  0
 16 20  1  0  0  0  0
 16 40  1  0  0  0  0
 16 41  1  0  0  0  0
 17 22  1  0  0  0  0
 17 42  1  1  0  0  0
 18 24  1  0  0  0  0
 18 43  1  0  0  0  0
 18 44  1  0  0  0  0
 19 20  1  0  0  0  0
 19 45  1  0  0  0  0
 19 46  1  0  0  0  0
 20 47  1  0  0  0  0
 20 48  1  0  0  0  0
 22 25  1  0  0  0  0
 22 49  1  0  0  0  0
 22 50  1  0  0  0  0
 23 51  1  0  0  0  0
 23 52  1  0  0  0  0
 23 53  1  0  0  0  0
 24 54  1  0  0  0  0
 24 55  1  0  0  0  0
 24 56  1  0  0  0  0
 25 26  1  0  0  0  0
 25 27  1  6  0  0  0
 25 57  1  0  0  0  0
 27 58  1  0  0  0  0
 27 59  1  0  0  0  0
 27 60  1  0  0  0  0
M  END
> <PUBCHEM_COMPOUND_CID>
100781

> <PUBCHEM_COMPOUND_CANONICALIZED>
1

> <PUBCHEM_CACTVS_COMPLEXITY>
636

> <PUBCHEM_CACTVS_HBOND_ACCEPTOR>
5

> <PUBCHEM_CACTVS_HBOND_DONOR>
0

> <PUBCHEM_CACTVS_ROTATABLE_BOND>
2

> <PUBCHEM_CACTVS_SUBSKEYS>
AAADcfB6OAAAAAAAAAAAAAAAAAAAAWJEgAAwAAAABYAAAFiwAAAAHgAAAAAADTzhgAYCCAMABAAIAACQCAAAAAAAAAAAAAEIAAACABIAgAAHAAAEAACQAAG62fOegAAAAAAAAACAgAaAADQAAAAAAAAAAA==

> <PUBCHEM_IUPAC_OPENEYE_NAME>
(1R,3S,9R,10R,11S,14S,15S,16R)-10-ethyl-14-methyl-3-[(2S,4S)-4-methyl-5-oxo-tetrahydrofuran-2-yl]-12-oxa-4-azatetracyclo[7.6.1.04,16.011,15]hexadecan-13-one

> <PUBCHEM_IUPAC_CAS_NAME>
(1R,3S,9R,10R,11S,14S,15S,16R)-10-ethyl-14-methyl-3-[(2S,4S)-4-methyl-5-oxo-2-oxolanyl]-12-oxa-4-azatetracyclo[7.6.1.04,16.011,15]hexadecan-13-one

> <PUBCHEM_IUPAC_NAME_MARKUP>
(1<I>R</I>,3<I>S</I>,9<I>R</I>,10<I>R</I>,11<I>S</I>,14<I>S</I>,15<I>S</I>,16<I>R</I>)-10-ethyl-14-methyl-3-[(2<I>S</I>,4<I>S</I>)-4-methyl-5-oxooxolan-2-yl]-12-oxa-4-azatetracyclo[7.6.1.0<SUP>4,16</SUP>.0<SUP>11,15</SUP>]hexadecan-13-one

> <PUBCHEM_IUPAC_NAME>
(1R,3S,9R,10R,11S,14S,15S,16R)-10-ethyl-14-methyl-3-[(2S,4S)-4-methyl-5-oxooxolan-2-yl]-12-oxa-4-azatetracyclo[7.6.1.04,16.011,15]hexadecan-13-one

> <PUBCHEM_IUPAC_SYSTEMATIC_NAME>
(1R,3S,9R,10R,11S,14S,15S,16R)-10-ethyl-14-methyl-3-[(2S,4S)-4-methyl-5-oxidanylidene-oxolan-2-yl]-12-oxa-4-azatetracyclo[7.6.1.04,16.011,15]hexadecan-13-one

> <PUBCHEM_IUPAC_TRADITIONAL_NAME>
(1R,3S,9R,10R,11S,14S,15S,16R)-10-ethyl-3-[(2S,4S)-5-keto-4-methyl-tetrahydrofuran-2-yl]-14-methyl-12-oxa-4-azatetracyclo[7.6.1.04,16.011,15]hexadecan-13-one

> <PUBCHEM_IUPAC_INCHI>
InChI=1S/C22H33NO4/c1-4-13-14-7-5-6-8-23-16(17-9-11(2)21(24)26-17)10-15(19(14)23)18-12(3)22(25)27-20(13)18/h11-20H,4-10H2,1-3H3/t11-,12-,13+,14+,15+,16-,17-,18+,19+,20-/m0/s1

> <PUBCHEM_IUPAC_INCHIKEY>
GYOGHROCTSEKDY-JJDZUBOLSA-N

> <PUBCHEM_XLOGP3_AA>
3.9

> <PUBCHEM_EXACT_MASS>
375.24095853

> <PUBCHEM_MOLECULAR_FORMULA>
C22H33NO4

> <PUBCHEM_MOLECULAR_WEIGHT>
375.5

> <PUBCHEM_OPENEYE_CAN_SMILES>
CCC1C2CCCCN3C2C(CC3C4CC(C(=O)O4)C)C5C1OC(=O)C5C

> <PUBCHEM_OPENEYE_ISO_SMILES>
CC[C@@H]1[C@H]2CCCCN3[C@H]2[C@H](C[C@H]3[C@@H]4C[C@@H](C(=O)O4)C)[C@@H]5[C@H]1OC(=O)[C@H]5C

> <PUBCHEM_CACTVS_TPSA>
55.8

> <PUBCHEM_MONOISOTOPIC_WEIGHT>
375.24095853

> <PUBCHEM_TOTAL_CHARGE>
0

> <PUBCHEM_HEAVY_ATOM_COUNT>
27

> <PUBCHEM_ATOM_DEF_STEREO_COUNT>
10

> <PUBCHEM_ATOM_UDEF_STEREO_COUNT>
0

> <PUBCHEM_BOND_DEF_STEREO_COUNT>
0

> <PUBCHEM_BOND_UDEF_STEREO_COUNT>
0

> <PUBCHEM_ISOTOPIC_ATOM_COUNT>
0

> <PUBCHEM_COMPONENT_COUNT>
1

> <PUBCHEM_CACTVS_TAUTO_COUNT>
4

> <PUBCHEM_COORDINATE_TYPE>
1
5
255

> <PUBCHEM_BONDANNOTATIONS>
10  18  6
11  33  6
13  36  5
14  23  6
17  42  5
25  27  6
6  28  5
7  29  6
8  30  6
9  31  6

$$$$
