1023768
  -OEChem-10012202172D

 63 68  0     0  0  0  0  0  0999 V2000
    2.8468   -0.3237    0.0000 O   0  0  0  0  0  0  0  0  0  0  0  0
    7.4216   -2.9649    0.0000 O   0  0  0  0  0  0  0  0  0  0  0  0
    7.3246    2.9145    0.0000 O   0  0  0  0  0  0  0  0  0  0  0  0
    7.9871    2.5320    0.0000 O   0  0  0  0  0  0  0  0  0  0  0  0
    2.9502    1.7009    0.0000 O   0  0  0  0  0  0  0  0  0  0  0  0
    9.1233   -1.8631    0.0000 O   0  0  0  0  0  0  0  0  0  0  0  0
    3.8880    3.1013    0.0000 O   0  0  0  0  0  0  0  0  0  0  0  0
    9.8672   -0.3508    0.0000 O   0  0  0  0  0  0  0  0  0  0  0  0
    6.9771   -3.7581    0.0000 O   0  0  0  0  0  0  0  0  0  0  0  0
    5.4984   -0.0135    0.0000 C   0  0  0  0  0  0  0  0  0  0  0  0
    6.3644   -0.5135    0.0000 C   0  0  0  0  0  0  0  0  0  0  0  0
    5.4984    0.9865    0.0000 C   0  0  0  0  0  0  0  0  0  0  0  0
    7.2305   -0.0135    0.0000 C   0  0  0  0  0  0  0  0  0  0  0  0
    4.5878   -0.3780    0.0000 C   0  0  0  0  0  0  0  0  0  0  0  0
    6.3644    1.4865    0.0000 C   0  0  0  0  0  0  0  0  0  0  0  0
    7.2305    0.9865    0.0000 C   0  0  0  0  0  0  0  0  0  0  0  0
    6.5041   -1.4843    0.0000 C   0  0  0  0  0  0  0  0  0  0  0  0
    4.3025   -1.3164    0.0000 C   0  0  0  0  0  0  0  0  0  0  0  0
    4.6877    1.5776    0.0000 C   0  0  0  0  0  0  0  0  0  0  0  0
    8.1478   -0.4201    0.0000 C   0  0  0  0  0  0  0  0  0  0  0  0
    5.8341   -2.2006    0.0000 C   0  0  0  0  0  0  0  0  0  0  0  0
    4.8561   -2.1260    0.0000 C   0  0  0  0  0  0  0  0  0  0  0  0
    3.7308    0.1438    0.0000 C   0  0  0  0  0  0  0  0  0  0  0  0
    7.3845   -1.9656    0.0000 C   0  0  0  0  0  0  0  0  0  0  0  0
    3.7820    1.1458    0.0000 C   0  0  0  0  0  0  0  0  0  0  0  0
    8.2267   -1.4203    0.0000 C   0  0  0  0  0  0  0  0  0  0  0  0
    6.4292    2.4692    0.0000 C   0  0  0  0  0  0  0  0  0  0  0  0
    8.0491    1.5340    0.0000 C   0  0  0  0  0  0  0  0  0  0  0  0
    4.7298    2.5615    0.0000 C   0  0  0  0  0  0  0  0  0  0  0  0
    8.9788    0.1084    0.0000 C   0  0  0  0  0  0  0  0  0  0  0  0
    5.6064    3.0103    0.0000 C   0  0  0  0  0  0  0  0  0  0  0  0
    8.9292    1.0919    0.0000 C   0  0  0  0  0  0  0  0  0  0  0  0
    4.3561   -2.9920    0.0000 C   0  0  0  0  0  0  0  0  0  0  0  0
    6.1969   -3.1325    0.0000 C   0  0  0  0  0  0  0  0  0  0  0  0
    5.5713   -3.9126    0.0000 C   0  0  0  0  0  0  0  0  0  0  0  0
    2.0000    0.2081    0.0000 C   0  0  0  0  0  0  0  0  0  0  0  0
    8.3056   -3.4324    0.0000 C   0  0  0  0  0  0  0  0  0  0  0  0
    7.3866    3.9126    0.0000 C   0  0  0  0  0  0  0  0  0  0  0  0
    8.8205    3.0847    0.0000 C   0  0  0  0  0  0  0  0  0  0  0  0
    3.7646   -1.0081    0.0000 H   0  0  0  0  0  0  0  0  0  0  0  0
    3.8818   -1.7718    0.0000 H   0  0  0  0  0  0  0  0  0  0  0  0
    5.6401    3.6294    0.0000 H   0  0  0  0  0  0  0  0  0  0  0  0
    9.4485    1.4306    0.0000 H   0  0  0  0  0  0  0  0  0  0  0  0
    3.8192   -2.6820    0.0000 H   0  0  0  0  0  0  0  0  0  0  0  0
    4.0461   -3.5290    0.0000 H   0  0  0  0  0  0  0  0  0  0  0  0
    4.8931   -3.3020    0.0000 H   0  0  0  0  0  0  0  0  0  0  0  0
    2.3943    1.4264    0.0000 H   0  0  0  0  0  0  0  0  0  0  0  0
    9.1635   -2.4818    0.0000 H   0  0  0  0  0  0  0  0  0  0  0  0
    5.0876   -3.5248    0.0000 H   0  0  0  0  0  0  0  0  0  0  0  0
    5.1834   -4.3963    0.0000 H   0  0  0  0  0  0  0  0  0  0  0  0
    6.0550   -4.3005    0.0000 H   0  0  0  0  0  0  0  0  0  0  0  0
    2.3297    0.7332    0.0000 H   0  0  0  0  0  0  0  0  0  0  0  0
    1.4750    0.5379    0.0000 H   0  0  0  0  0  0  0  0  0  0  0  0
    1.6703   -0.3169    0.0000 H   0  0  0  0  0  0  0  0  0  0  0  0
    8.0158   -3.9805    0.0000 H   0  0  0  0  0  0  0  0  0  0  0  0
    8.8537   -3.7222    0.0000 H   0  0  0  0  0  0  0  0  0  0  0  0
    8.5954   -2.8843    0.0000 H   0  0  0  0  0  0  0  0  0  0  0  0
    8.0054    3.8742    0.0000 H   0  0  0  0  0  0  0  0  0  0  0  0
    7.4250    4.5314    0.0000 H   0  0  0  0  0  0  0  0  0  0  0  0
    6.7678    3.9510    0.0000 H   0  0  0  0  0  0  0  0  0  0  0  0
    9.1632    2.5680    0.0000 H   0  0  0  0  0  0  0  0  0  0  0  0
    9.3372    3.4274    0.0000 H   0  0  0  0  0  0  0  0  0  0  0  0
    8.4778    3.6014    0.0000 H   0  0  0  0  0  0  0  0  0  0  0  0
  1 23  1  0  0  0  0
  1 36  1  0  0  0  0
  2 24  1  0  0  0  0
  2 37  1  0  0  0  0
  3 27  1  0  0  0  0
  3 38  1  0  0  0  0
  4 28  1  0  0  0  0
  4 39  1  0  0  0  0
  5 25  1  0  0  0  0
  5 47  1  0  0  0  0
  6 26  1  0  0  0  0
  6 48  1  0  0  0  0
  7 29  2  0  0  0  0
  8 30  2  0  0  0  0
  9 34  2  0  0  0  0
 10 11  1  0  0  0  0
 10 12  1  0  0  0  0
 10 14  2  0  0  0  0
 11 13  1  0  0  0  0
 11 17  2  0  0  0  0
 12 15  1  0  0  0  0
 12 19  2  0  0  0  0
 13 16  1  0  0  0  0
 13 20  2  0  0  0  0
 14 18  1  0  0  0  0
 14 23  1  0  0  0  0
 15 16  2  0  0  0  0
 15 27  1  0  0  0  0
 16 28  1  0  0  0  0
 17 21  1  0  0  0  0
 17 24  1  0  0  0  0
 18 22  1  0  0  0  0
 18 40  1  0  0  0  0
 18 41  1  0  0  0  0
 19 25  1  0  0  0  0
 19 29  1  0  0  0  0
 20 26  1  0  0  0  0
 20 30  1  0  0  0  0
 21 22  2  0  0  0  0
 21 34  1  0  0  0  0
 22 33  1  0  0  0  0
 23 25  2  0  0  0  0
 24 26  2  0  0  0  0
 27 31  2  0  0  0  0
 28 32  2  0  0  0  0
 29 31  1  0  0  0  0
 30 32  1  0  0  0  0
 31 42  1  0  0  0  0
 32 43  1  0  0  0  0
 33 44  1  0  0  0  0
 33 45  1  0  0  0  0
 33 46  1  0  0  0  0
 34 35  1  0  0  0  0
 35 49  1  0  0  0  0
 35 50  1  0  0  0  0
 35 51  1  0  0  0  0
 36 52  1  0  0  0  0
 36 53  1  0  0  0  0
 36 54  1  0  0  0  0
 37 55  1  0  0  0  0
 37 56  1  0  0  0  0
 37 57  1  0  0  0  0
 38 58  1  0  0  0  0
 38 59  1  0  0  0  0
 38 60  1  0  0  0  0
 39 61  1  0  0  0  0
 39 62  1  0  0  0  0
 39 63  1  0  0  0  0
M  END
> <PUBCHEM_COMPOUND_CID>
1023768

> <PUBCHEM_COMPOUND_CANONICALIZED>
1

> <PUBCHEM_CACTVS_COMPLEXITY>
1200

> <PUBCHEM_CACTVS_HBOND_ACCEPTOR>
9

> <PUBCHEM_CACTVS_HBOND_DONOR>
2

> <PUBCHEM_CACTVS_ROTATABLE_BOND>
5

> <PUBCHEM_CACTVS_SUBSKEYS>
AAADceB4PAAAAAAAAAAAAAAAAAAAAAAAAAAwYMECBAAAAACBUAAAGgAACAAADASAmAICBsAABgCIAqBSAAACCAAkIAAAiAEEiMgNJjaGNBqAcWMk4BELuQfK7PzO4AADAAAYQADAAAYAADCAAAAAAAAAAA==

> <PUBCHEM_IUPAC_OPENEYE_NAME>
12-acetyl-9,17-dihydroxy-5,10,16,21-tetramethoxy-13-methyl-hexacyclo[13.8.0.02,11.03,8.04,22.018,23]tricosa-1(15),2(11),3(8),4(22),5,9,12,16,18(23),20-decaene-7,19-dione

> <PUBCHEM_IUPAC_CAS_NAME>
12-acetyl-9,17-dihydroxy-5,10,16,21-tetramethoxy-13-methylhexacyclo[13.8.0.02,11.03,8.04,22.018,23]tricosa-1(15),2(11),3(8),4(22),5,9,12,16,18(23),20-decaene-7,19-dione

> <PUBCHEM_IUPAC_NAME_MARKUP>
12-acetyl-9,17-dihydroxy-5,10,16,21-tetramethoxy-13-methylhexacyclo[13.8.0.0<SUP>2,11</SUP>.0<SUP>3,8</SUP>.0<SUP>4,22</SUP>.0<SUP>18,23</SUP>]tricosa-1(15),2(11),3(8),4(22),5,9,12,16,18(23),20-decaene-7,19-dione

> <PUBCHEM_IUPAC_NAME>
12-acetyl-9,17-dihydroxy-5,10,16,21-tetramethoxy-13-methylhexacyclo[13.8.0.02,11.03,8.04,22.018,23]tricosa-1(15),2(11),3(8),4(22),5,9,12,16,18(23),20-decaene-7,19-dione

> <PUBCHEM_IUPAC_SYSTEMATIC_NAME>
12-ethanoyl-5,10,16,21-tetramethoxy-13-methyl-9,17-bis(oxidanyl)hexacyclo[13.8.0.02,11.03,8.04,22.018,23]tricosa-1(15),2(11),3(8),4(22),5,9,12,16,18(23),20-decaene-7,19-dione

> <PUBCHEM_IUPAC_TRADITIONAL_NAME>
12-acetyl-9,17-dihydroxy-5,10,16,21-tetramethoxy-13-methyl-hexacyclo[13.8.0.02,11.03,8.04,22.018,23]tricosa-1(15),2(11),3(8),4(22),5,9,12,16,18(23),20-decaene-7,19-quinone

> <PUBCHEM_IUPAC_INCHI>
InChI=1S/C30H24O9/c1-10-7-12-18-23-19(27(34)29(12)38-5)13(32)8-15(36-3)21(23)22-16(37-4)9-14(33)20-25(22)24(18)26(17(10)11(2)31)30(39-6)28(20)35/h8-9,34-35H,7H2,1-6H3

> <PUBCHEM_IUPAC_INCHIKEY>
SBMXTMAIKRQSQE-UHFFFAOYSA-N

> <PUBCHEM_XLOGP3_AA>
4.3

> <PUBCHEM_EXACT_MASS>
528.14203234

> <PUBCHEM_MOLECULAR_FORMULA>
C30H24O9

> <PUBCHEM_MOLECULAR_WEIGHT>
528.5

> <PUBCHEM_OPENEYE_CAN_SMILES>
CC1=C(C2=C3C4=C(C1)C(=C(C5=C4C(=C6C3=C(C(=O)C=C6OC)C(=C2OC)O)C(=CC5=O)OC)O)OC)C(=O)C

> <PUBCHEM_OPENEYE_ISO_SMILES>
CC1=C(C2=C3C4=C(C1)C(=C(C5=C4C(=C6C3=C(C(=O)C=C6OC)C(=C2OC)O)C(=CC5=O)OC)O)OC)C(=O)C

> <PUBCHEM_CACTVS_TPSA>
129

> <PUBCHEM_MONOISOTOPIC_WEIGHT>
528.14203234

> <PUBCHEM_TOTAL_CHARGE>
0

> <PUBCHEM_HEAVY_ATOM_COUNT>
39

> <PUBCHEM_ATOM_DEF_STEREO_COUNT>
0

> <PUBCHEM_ATOM_UDEF_STEREO_COUNT>
0

> <PUBCHEM_BOND_DEF_STEREO_COUNT>
0

> <PUBCHEM_BOND_UDEF_STEREO_COUNT>
0

> <PUBCHEM_ISOTOPIC_ATOM_COUNT>
0

> <PUBCHEM_COMPONENT_COUNT>
1

> <PUBCHEM_CACTVS_TAUTO_COUNT>
997

> <PUBCHEM_COORDINATE_TYPE>
1
5
255

> <PUBCHEM_BONDANNOTATIONS>
10  11  8
10  12  8
10  14  8
11  13  8
11  17  8
12  15  8
12  19  8
13  16  8
13  20  8
14  23  8
15  16  8
15  27  8
16  28  8
17  24  8
19  25  8
19  29  8
20  26  8
20  30  8
23  25  8
24  26  8
27  31  8
28  32  8
29  31  8
30  32  8

$$$$
