10235
  -OEChem-10012202162D

 28 30  0     1  0  0  0  0  0999 V2000
    2.0000    0.0307    0.0000 O   0  0  0  0  0  0  0  0  0  0  0  0
    3.7657   -0.0960    0.0000 N   0  0  0  0  0  0  0  0  0  0  0  0
    7.8646    0.0452    0.0000 N   0  0  0  0  0  0  0  0  0  0  0  0
    6.0745    1.1764    0.0000 C   0  0  2  0  0  0  0  0  0  0  0  0
    5.8157    0.2105    0.0000 C   0  0  2  0  0  0  0  0  0  0  0  0
    5.3379    2.1591    0.0000 C   0  0  0  0  0  0  0  0  0  0  0  0
    4.0413    0.8653    0.0000 C   0  0  0  0  0  0  0  0  0  0  0  0
    7.5062    0.9788    0.0000 C   0  0  0  0  0  0  0  0  0  0  0  0
    7.0874   -0.5841    0.0000 C   0  0  0  0  0  0  0  0  0  0  0  0
    4.5947   -0.6551    0.0000 C   0  0  0  0  0  0  0  0  0  0  0  0
    4.5381   -1.6952    0.0000 C   0  0  0  0  0  0  0  0  0  0  0  0
    2.8225   -0.5381    0.0000 C   0  0  0  0  0  0  0  0  0  0  0  0
    3.6054   -2.1591    0.0000 C   0  0  0  0  0  0  0  0  0  0  0  0
    2.7418   -1.5766    0.0000 C   0  0  0  0  0  0  0  0  0  0  0  0
    6.2945    1.9975    0.0000 H   0  0  0  0  0  0  0  0  0  0  0  0
    5.5957   -0.6105    0.0000 H   0  0  0  0  0  0  0  0  0  0  0  0
    5.6557    2.6914    0.0000 H   0  0  0  0  0  0  0  0  0  0  0  0
    4.7248    2.2510    0.0000 H   0  0  0  0  0  0  0  0  0  0  0  0
    4.0362    1.4853    0.0000 H   0  0  0  0  0  0  0  0  0  0  0  0
    3.4270    0.9491    0.0000 H   0  0  0  0  0  0  0  0  0  0  0  0
    8.1140    1.1011    0.0000 H   0  0  0  0  0  0  0  0  0  0  0  0
    7.4871    1.5985    0.0000 H   0  0  0  0  0  0  0  0  0  0  0  0
    6.7028   -1.0705    0.0000 H   0  0  0  0  0  0  0  0  0  0  0  0
    7.5284   -1.0200    0.0000 H   0  0  0  0  0  0  0  0  0  0  0  0
    8.4634   -0.1153    0.0000 H   0  0  0  0  0  0  0  0  0  0  0  0
    5.0560   -2.0360    0.0000 H   0  0  0  0  0  0  0  0  0  0  0  0
    3.5645   -2.7777    0.0000 H   0  0  0  0  0  0  0  0  0  0  0  0
    2.1836   -1.8462    0.0000 H   0  0  0  0  0  0  0  0  0  0  0  0
  1 12  2  0  0  0  0
  2  7  1  0  0  0  0
  2 10  1  0  0  0  0
  2 12  1  0  0  0  0
  3  8  1  0  0  0  0
  3  9  1  0  0  0  0
  3 25  1  0  0  0  0
  4  6  1  0  0  0  0
  4  7  1  0  0  0  0
  4  8  1  0  0  0  0
  4 15  1  6  0  0  0
  5  6  1  0  0  0  0
  5  9  1  0  0  0  0
  5 10  1  0  0  0  0
  5 16  1  1  0  0  0
  6 17  1  0  0  0  0
  6 18  1  0  0  0  0
  7 19  1  0  0  0  0
  7 20  1  0  0  0  0
  8 21  1  0  0  0  0
  8 22  1  0  0  0  0
  9 23  1  0  0  0  0
  9 24  1  0  0  0  0
 10 11  2  0  0  0  0
 11 13  1  0  0  0  0
 11 26  1  0  0  0  0
 12 14  1  0  0  0  0
 13 14  2  0  0  0  0
 13 27  1  0  0  0  0
 14 28  1  0  0  0  0
M  END
> <PUBCHEM_COMPOUND_CID>
10235

> <PUBCHEM_COMPOUND_CANONICALIZED>
1

> <PUBCHEM_CACTVS_COMPLEXITY>
332

> <PUBCHEM_CACTVS_HBOND_ACCEPTOR>
2

> <PUBCHEM_CACTVS_HBOND_DONOR>
1

> <PUBCHEM_CACTVS_ROTATABLE_BOND>
0

> <PUBCHEM_CACTVS_SUBSKEYS>
AAADccBzIAAAAAAAAAAAAAAAAAAAAAAAAAAsWIAAAAAWAACAAAAAHgAQAAAADQjBgAQAAAPAAACIACVSUACAAAAgAgAICIAIAEgIAAIAwQAEAAAAlgCIgYIQAAAMAAAAAAAAAAAAAAAAAAAAAAAAAAAAAA==

> <PUBCHEM_IUPAC_OPENEYE_NAME>
(1R,9S)-7,11-diazatricyclo[7.3.1.02,7]trideca-2,4-dien-6-one

> <PUBCHEM_IUPAC_CAS_NAME>
(1R,9S)-7,11-diazatricyclo[7.3.1.02,7]trideca-2,4-dien-6-one

> <PUBCHEM_IUPAC_NAME_MARKUP>
(1<I>R</I>,9<I>S</I>)-7,11-diazatricyclo[7.3.1.0<SUP>2,7</SUP>]trideca-2,4-dien-6-one

> <PUBCHEM_IUPAC_NAME>
(1R,9S)-7,11-diazatricyclo[7.3.1.02,7]trideca-2,4-dien-6-one

> <PUBCHEM_IUPAC_SYSTEMATIC_NAME>
(1R,9S)-7,11-diazatricyclo[7.3.1.02,7]trideca-2,4-dien-6-one

> <PUBCHEM_IUPAC_TRADITIONAL_NAME>
(1R,9S)-7,11-diazatricyclo[7.3.1.02,7]trideca-2,4-dien-6-one

> <PUBCHEM_IUPAC_INCHI>
InChI=1S/C11H14N2O/c14-11-3-1-2-10-9-4-8(5-12-6-9)7-13(10)11/h1-3,8-9,12H,4-7H2/t8-,9+/m0/s1

> <PUBCHEM_IUPAC_INCHIKEY>
ANJTVLIZGCUXLD-DTWKUNHWSA-N

> <PUBCHEM_XLOGP3_AA>
0.2

> <PUBCHEM_EXACT_MASS>
190.110613074

> <PUBCHEM_MOLECULAR_FORMULA>
C11H14N2O

> <PUBCHEM_MOLECULAR_WEIGHT>
190.24

> <PUBCHEM_OPENEYE_CAN_SMILES>
C1C2CNCC1C3=CC=CC(=O)N3C2

> <PUBCHEM_OPENEYE_ISO_SMILES>
C1[C@H]2CNC[C@@H]1C3=CC=CC(=O)N3C2

> <PUBCHEM_CACTVS_TPSA>
32.3

> <PUBCHEM_MONOISOTOPIC_WEIGHT>
190.110613074

> <PUBCHEM_TOTAL_CHARGE>
0

> <PUBCHEM_HEAVY_ATOM_COUNT>
14

> <PUBCHEM_ATOM_DEF_STEREO_COUNT>
2

> <PUBCHEM_ATOM_UDEF_STEREO_COUNT>
0

> <PUBCHEM_BOND_DEF_STEREO_COUNT>
0

> <PUBCHEM_BOND_UDEF_STEREO_COUNT>
0

> <PUBCHEM_ISOTOPIC_ATOM_COUNT>
0

> <PUBCHEM_COMPONENT_COUNT>
1

> <PUBCHEM_CACTVS_TAUTO_COUNT>
-1

> <PUBCHEM_COORDINATE_TYPE>
1
5
255

> <PUBCHEM_BONDANNOTATIONS>
10  11  8
11  13  8
12  14  8
13  14  8
2  10  8
2  12  8
4  15  6
5  16  5

$$$$
22407
  -OEChem-10012202162D

 28 30  0     1  0  0  0  0  0999 V2000
    2.0000    0.0307    0.0000 O   0  0  0  0  0  0  0  0  0  0  0  0
    3.7657   -0.0960    0.0000 N   0  0  0  0  0  0  0  0  0  0  0  0
    7.8646    0.0452    0.0000 N   0  0  0  0  0  0  0  0  0  0  0  0
    6.0745    1.1764    0.0000 C   0  0  3  0  0  0  0  0  0  0  0  0
    5.8157    0.2105    0.0000 C   0  0  3  0  0  0  0  0  0  0  0  0
    5.3379    2.1591    0.0000 C   0  0  0  0  0  0  0  0  0  0  0  0
    4.0413    0.8653    0.0000 C   0  0  0  0  0  0  0  0  0  0  0  0
    7.5062    0.9788    0.0000 C   0  0  0  0  0  0  0  0  0  0  0  0
    7.0874   -0.5841    0.0000 C   0  0  0  0  0  0  0  0  0  0  0  0
    4.5947   -0.6551    0.0000 C   0  0  0  0  0  0  0  0  0  0  0  0
    4.5381   -1.6952    0.0000 C   0  0  0  0  0  0  0  0  0  0  0  0
    2.8225   -0.5381    0.0000 C   0  0  0  0  0  0  0  0  0  0  0  0
    3.6054   -2.1591    0.0000 C   0  0  0  0  0  0  0  0  0  0  0  0
    2.7418   -1.5766    0.0000 C   0  0  0  0  0  0  0  0  0  0  0  0
    6.0808    0.3265    0.0000 H   0  0  0  0  0  0  0  0  0  0  0  0
    6.5043    0.7088    0.0000 H   0  0  0  0  0  0  0  0  0  0  0  0
    5.6557    2.6914    0.0000 H   0  0  0  0  0  0  0  0  0  0  0  0
    4.7248    2.2510    0.0000 H   0  0  0  0  0  0  0  0  0  0  0  0
    4.0362    1.4853    0.0000 H   0  0  0  0  0  0  0  0  0  0  0  0
    3.4270    0.9491    0.0000 H   0  0  0  0  0  0  0  0  0  0  0  0
    8.1140    1.1011    0.0000 H   0  0  0  0  0  0  0  0  0  0  0  0
    7.4871    1.5985    0.0000 H   0  0  0  0  0  0  0  0  0  0  0  0
    6.7028   -1.0705    0.0000 H   0  0  0  0  0  0  0  0  0  0  0  0
    7.5284   -1.0200    0.0000 H   0  0  0  0  0  0  0  0  0  0  0  0
    8.4634   -0.1153    0.0000 H   0  0  0  0  0  0  0  0  0  0  0  0
    5.0560   -2.0360    0.0000 H   0  0  0  0  0  0  0  0  0  0  0  0
    3.5645   -2.7777    0.0000 H   0  0  0  0  0  0  0  0  0  0  0  0
    2.1836   -1.8462    0.0000 H   0  0  0  0  0  0  0  0  0  0  0  0
  1 12  2  0  0  0  0
  2  7  1  0  0  0  0
  2 10  1  0  0  0  0
  2 12  1  0  0  0  0
  3  8  1  0  0  0  0
  3  9  1  0  0  0  0
  3 25  1  0  0  0  0
  4  6  1  0  0  0  0
  4  7  1  0  0  0  0
  4  8  1  0  0  0  0
  4 15  1  0  0  0  0
  5  6  1  0  0  0  0
  5  9  1  0  0  0  0
  5 10  1  0  0  0  0
  5 16  1  0  0  0  0
  6 17  1  0  0  0  0
  6 18  1  0  0  0  0
  7 19  1  0  0  0  0
  7 20  1  0  0  0  0
  8 21  1  0  0  0  0
  8 22  1  0  0  0  0
  9 23  1  0  0  0  0
  9 24  1  0  0  0  0
 10 11  2  0  0  0  0
 11 13  1  0  0  0  0
 11 26  1  0  0  0  0
 12 14  1  0  0  0  0
 13 14  2  0  0  0  0
 13 27  1  0  0  0  0
 14 28  1  0  0  0  0
M  END
> <PUBCHEM_COMPOUND_CID>
22407

> <PUBCHEM_COMPOUND_CANONICALIZED>
1

> <PUBCHEM_CACTVS_COMPLEXITY>
332

> <PUBCHEM_CACTVS_HBOND_ACCEPTOR>
2

> <PUBCHEM_CACTVS_HBOND_DONOR>
1

> <PUBCHEM_CACTVS_ROTATABLE_BOND>
0

> <PUBCHEM_CACTVS_SUBSKEYS>
AAADccBzIAAAAAAAAAAAAAAAAAAAAAAAAAAsWIAAAAAWAACAAAAAHgAQAAAADQjBgAQAAAPAAACIACVSUACAAAAgAgAICIAIAEgIAAIAwQAEAAAAlgCIgYIQAAAMAAAAAAAAAAAAAAAAAAAAAAAAAAAAAA==

> <PUBCHEM_IUPAC_OPENEYE_NAME>
7,11-diazatricyclo[7.3.1.02,7]trideca-2,4-dien-6-one

> <PUBCHEM_IUPAC_CAS_NAME>
7,11-diazatricyclo[7.3.1.02,7]trideca-2,4-dien-6-one

> <PUBCHEM_IUPAC_NAME_MARKUP>
7,11-diazatricyclo[7.3.1.0<SUP>2,7</SUP>]trideca-2,4-dien-6-one

> <PUBCHEM_IUPAC_NAME>
7,11-diazatricyclo[7.3.1.02,7]trideca-2,4-dien-6-one

> <PUBCHEM_IUPAC_SYSTEMATIC_NAME>
7,11-diazatricyclo[7.3.1.02,7]trideca-2,4-dien-6-one

> <PUBCHEM_IUPAC_TRADITIONAL_NAME>
7,11-diazatricyclo[7.3.1.02,7]trideca-2,4-dien-6-one

> <PUBCHEM_IUPAC_INCHI>
InChI=1S/C11H14N2O/c14-11-3-1-2-10-9-4-8(5-12-6-9)7-13(10)11/h1-3,8-9,12H,4-7H2

> <PUBCHEM_IUPAC_INCHIKEY>
ANJTVLIZGCUXLD-UHFFFAOYSA-N

> <PUBCHEM_XLOGP3_AA>
0.2

> <PUBCHEM_EXACT_MASS>
190.110613074

> <PUBCHEM_MOLECULAR_FORMULA>
C11H14N2O

> <PUBCHEM_MOLECULAR_WEIGHT>
190.24

> <PUBCHEM_OPENEYE_CAN_SMILES>
C1C2CNCC1C3=CC=CC(=O)N3C2

> <PUBCHEM_OPENEYE_ISO_SMILES>
C1C2CNCC1C3=CC=CC(=O)N3C2

> <PUBCHEM_CACTVS_TPSA>
32.3

> <PUBCHEM_MONOISOTOPIC_WEIGHT>
190.110613074

> <PUBCHEM_TOTAL_CHARGE>
0

> <PUBCHEM_HEAVY_ATOM_COUNT>
14

> <PUBCHEM_ATOM_DEF_STEREO_COUNT>
0

> <PUBCHEM_ATOM_UDEF_STEREO_COUNT>
2

> <PUBCHEM_BOND_DEF_STEREO_COUNT>
0

> <PUBCHEM_BOND_UDEF_STEREO_COUNT>
0

> <PUBCHEM_ISOTOPIC_ATOM_COUNT>
0

> <PUBCHEM_COMPONENT_COUNT>
1

> <PUBCHEM_CACTVS_TAUTO_COUNT>
5

> <PUBCHEM_COORDINATE_TYPE>
1
5
255

> <PUBCHEM_BONDANNOTATIONS>
10  11  8
11  13  8
12  14  8
13  14  8
2  10  8
2  12  8
4  15  3
5  16  3

$$$$
442949
  -OEChem-10012202162D

 28 30  0     1  0  0  0  0  0999 V2000
    2.0000    0.0307    0.0000 O   0  0  0  0  0  0  0  0  0  0  0  0
    3.7657   -0.0960    0.0000 N   0  0  0  0  0  0  0  0  0  0  0  0
    7.8646    0.0452    0.0000 N   0  0  0  0  0  0  0  0  0  0  0  0
    6.0745    1.1764    0.0000 C   0  0  2  0  0  0  0  0  0  0  0  0
    5.8157    0.2105    0.0000 C   0  0  1  0  0  0  0  0  0  0  0  0
    5.3379    2.1591    0.0000 C   0  0  0  0  0  0  0  0  0  0  0  0
    4.0413    0.8653    0.0000 C   0  0  0  0  0  0  0  0  0  0  0  0
    7.5062    0.9788    0.0000 C   0  0  0  0  0  0  0  0  0  0  0  0
    7.0874   -0.5841    0.0000 C   0  0  0  0  0  0  0  0  0  0  0  0
    4.5947   -0.6551    0.0000 C   0  0  0  0  0  0  0  0  0  0  0  0
    4.5381   -1.6952    0.0000 C   0  0  0  0  0  0  0  0  0  0  0  0
    2.8225   -0.5381    0.0000 C   0  0  0  0  0  0  0  0  0  0  0  0
    3.6054   -2.1591    0.0000 C   0  0  0  0  0  0  0  0  0  0  0  0
    2.7418   -1.5766    0.0000 C   0  0  0  0  0  0  0  0  0  0  0  0
    6.2945    1.9975    0.0000 H   0  0  0  0  0  0  0  0  0  0  0  0
    5.5957   -0.6105    0.0000 H   0  0  0  0  0  0  0  0  0  0  0  0
    5.6557    2.6914    0.0000 H   0  0  0  0  0  0  0  0  0  0  0  0
    4.7248    2.2510    0.0000 H   0  0  0  0  0  0  0  0  0  0  0  0
    4.0362    1.4853    0.0000 H   0  0  0  0  0  0  0  0  0  0  0  0
    3.4270    0.9491    0.0000 H   0  0  0  0  0  0  0  0  0  0  0  0
    8.1140    1.1011    0.0000 H   0  0  0  0  0  0  0  0  0  0  0  0
    7.4871    1.5985    0.0000 H   0  0  0  0  0  0  0  0  0  0  0  0
    6.7028   -1.0705    0.0000 H   0  0  0  0  0  0  0  0  0  0  0  0
    7.5284   -1.0200    0.0000 H   0  0  0  0  0  0  0  0  0  0  0  0
    8.4634   -0.1153    0.0000 H   0  0  0  0  0  0  0  0  0  0  0  0
    5.0560   -2.0360    0.0000 H   0  0  0  0  0  0  0  0  0  0  0  0
    3.5645   -2.7777    0.0000 H   0  0  0  0  0  0  0  0  0  0  0  0
    2.1836   -1.8462    0.0000 H   0  0  0  0  0  0  0  0  0  0  0  0
  1 12  2  0  0  0  0
  2  7  1  0  0  0  0
  2 10  1  0  0  0  0
  2 12  1  0  0  0  0
  3  8  1  0  0  0  0
  3  9  1  0  0  0  0
  3 25  1  0  0  0  0
  4  6  1  0  0  0  0
  4  7  1  0  0  0  0
  4  8  1  0  0  0  0
  4 15  1  6  0  0  0
  5  6  1  0  0  0  0
  5  9  1  0  0  0  0
  5 10  1  0  0  0  0
  5 16  1  6  0  0  0
  6 17  1  0  0  0  0
  6 18  1  0  0  0  0
  7 19  1  0  0  0  0
  7 20  1  0  0  0  0
  8 21  1  0  0  0  0
  8 22  1  0  0  0  0
  9 23  1  0  0  0  0
  9 24  1  0  0  0  0
 10 11  2  0  0  0  0
 11 13  1  0  0  0  0
 11 26  1  0  0  0  0
 12 14  1  0  0  0  0
 13 14  2  0  0  0  0
 13 27  1  0  0  0  0
 14 28  1  0  0  0  0
M  END
> <PUBCHEM_COMPOUND_CID>
442949

> <PUBCHEM_COMPOUND_CANONICALIZED>
1

> <PUBCHEM_CACTVS_COMPLEXITY>
332

> <PUBCHEM_CACTVS_HBOND_ACCEPTOR>
2

> <PUBCHEM_CACTVS_HBOND_DONOR>
1

> <PUBCHEM_CACTVS_ROTATABLE_BOND>
0

> <PUBCHEM_CACTVS_SUBSKEYS>
AAADccBzIAAAAAAAAAAAAAAAAAAAAAAAAAAsWIAAAAAWAACAAAAAHgAQAAAADQjBgAQAAAPAAACIACVSUACAAAAgAgAICIAIAEgIAAIAwQAEAAAAlgCIgYIQAAAMAAAAAAAAAAAAAAAAAAAAAAAAAAAAAA==

> <PUBCHEM_IUPAC_OPENEYE_NAME>
(1S,9S)-7,11-diazatricyclo[7.3.1.02,7]trideca-2,4-dien-6-one

> <PUBCHEM_IUPAC_CAS_NAME>
(1S,9S)-7,11-diazatricyclo[7.3.1.02,7]trideca-2,4-dien-6-one

> <PUBCHEM_IUPAC_NAME_MARKUP>
(1<I>S</I>,9<I>S</I>)-7,11-diazatricyclo[7.3.1.0<SUP>2,7</SUP>]trideca-2,4-dien-6-one

> <PUBCHEM_IUPAC_NAME>
(1S,9S)-7,11-diazatricyclo[7.3.1.02,7]trideca-2,4-dien-6-one

> <PUBCHEM_IUPAC_SYSTEMATIC_NAME>
(1S,9S)-7,11-diazatricyclo[7.3.1.02,7]trideca-2,4-dien-6-one

> <PUBCHEM_IUPAC_TRADITIONAL_NAME>
(1S,9S)-7,11-diazatricyclo[7.3.1.02,7]trideca-2,4-dien-6-one

> <PUBCHEM_IUPAC_INCHI>
InChI=1S/C11H14N2O/c14-11-3-1-2-10-9-4-8(5-12-6-9)7-13(10)11/h1-3,8-9,12H,4-7H2/t8-,9-/m0/s1

> <PUBCHEM_IUPAC_INCHIKEY>
ANJTVLIZGCUXLD-IUCAKERBSA-N

> <PUBCHEM_XLOGP3_AA>
0.2

> <PUBCHEM_EXACT_MASS>
190.110613074

> <PUBCHEM_MOLECULAR_FORMULA>
C11H14N2O

> <PUBCHEM_MOLECULAR_WEIGHT>
190.24

> <PUBCHEM_OPENEYE_CAN_SMILES>
C1C2CNCC1C3=CC=CC(=O)N3C2

> <PUBCHEM_OPENEYE_ISO_SMILES>
C1[C@H]2CNC[C@H]1C3=CC=CC(=O)N3C2

> <PUBCHEM_CACTVS_TPSA>
32.3

> <PUBCHEM_MONOISOTOPIC_WEIGHT>
190.110613074

> <PUBCHEM_TOTAL_CHARGE>
0

> <PUBCHEM_HEAVY_ATOM_COUNT>
14

> <PUBCHEM_ATOM_DEF_STEREO_COUNT>
2

> <PUBCHEM_ATOM_UDEF_STEREO_COUNT>
0

> <PUBCHEM_BOND_DEF_STEREO_COUNT>
0

> <PUBCHEM_BOND_UDEF_STEREO_COUNT>
0

> <PUBCHEM_ISOTOPIC_ATOM_COUNT>
0

> <PUBCHEM_COMPONENT_COUNT>
1

> <PUBCHEM_CACTVS_TAUTO_COUNT>
-1

> <PUBCHEM_COORDINATE_TYPE>
1
5
255

> <PUBCHEM_BONDANNOTATIONS>
10  11  8
11  13  8
12  14  8
13  14  8
2  10  8
2  12  8
4  15  6
5  16  6

$$$$
683511
  -OEChem-10012202162D

 28 30  0     1  0  0  0  0  0999 V2000
    7.6851    0.0307    0.0000 O   0  0  0  0  0  0  0  0  0  0  0  0
    5.9194   -0.0960    0.0000 N   0  0  0  0  0  0  0  0  0  0  0  0
    1.8206    0.0452    0.0000 N   0  0  0  0  0  0  0  0  0  0  0  0
    3.6106    1.1764    0.0000 C   0  0  1  0  0  0  0  0  0  0  0  0
    3.8694    0.2105    0.0000 C   0  0  1  0  0  0  0  0  0  0  0  0
    4.3472    2.1591    0.0000 C   0  0  0  0  0  0  0  0  0  0  0  0
    5.6438    0.8653    0.0000 C   0  0  0  0  0  0  0  0  0  0  0  0
    2.1789    0.9788    0.0000 C   0  0  0  0  0  0  0  0  0  0  0  0
    2.5977   -0.5841    0.0000 C   0  0  0  0  0  0  0  0  0  0  0  0
    5.0904   -0.6551    0.0000 C   0  0  0  0  0  0  0  0  0  0  0  0
    5.1470   -1.6952    0.0000 C   0  0  0  0  0  0  0  0  0  0  0  0
    6.8626   -0.5381    0.0000 C   0  0  0  0  0  0  0  0  0  0  0  0
    6.0797   -2.1591    0.0000 C   0  0  0  0  0  0  0  0  0  0  0  0
    6.9433   -1.5766    0.0000 C   0  0  0  0  0  0  0  0  0  0  0  0
    3.3906    1.9975    0.0000 H   0  0  0  0  0  0  0  0  0  0  0  0
    4.0894   -0.6105    0.0000 H   0  0  0  0  0  0  0  0  0  0  0  0
    4.0294    2.6914    0.0000 H   0  0  0  0  0  0  0  0  0  0  0  0
    4.9603    2.2510    0.0000 H   0  0  0  0  0  0  0  0  0  0  0  0
    5.6489    1.4853    0.0000 H   0  0  0  0  0  0  0  0  0  0  0  0
    6.2581    0.9491    0.0000 H   0  0  0  0  0  0  0  0  0  0  0  0
    1.5711    1.1011    0.0000 H   0  0  0  0  0  0  0  0  0  0  0  0
    2.1980    1.5985    0.0000 H   0  0  0  0  0  0  0  0  0  0  0  0
    2.9823   -1.0705    0.0000 H   0  0  0  0  0  0  0  0  0  0  0  0
    2.1568   -1.0200    0.0000 H   0  0  0  0  0  0  0  0  0  0  0  0
    1.2217   -0.1153    0.0000 H   0  0  0  0  0  0  0  0  0  0  0  0
    4.6291   -2.0360    0.0000 H   0  0  0  0  0  0  0  0  0  0  0  0
    6.1206   -2.7777    0.0000 H   0  0  0  0  0  0  0  0  0  0  0  0
    7.5016   -1.8462    0.0000 H   0  0  0  0  0  0  0  0  0  0  0  0
  1 12  2  0  0  0  0
  2  7  1  0  0  0  0
  2 10  1  0  0  0  0
  2 12  1  0  0  0  0
  3  8  1  0  0  0  0
  3  9  1  0  0  0  0
  3 25  1  0  0  0  0
  4  6  1  0  0  0  0
  4  7  1  0  0  0  0
  4  8  1  0  0  0  0
  4 15  1  6  0  0  0
  5  6  1  0  0  0  0
  5  9  1  0  0  0  0
  5 10  1  0  0  0  0
  5 16  1  1  0  0  0
  6 17  1  0  0  0  0
  6 18  1  0  0  0  0
  7 19  1  0  0  0  0
  7 20  1  0  0  0  0
  8 21  1  0  0  0  0
  8 22  1  0  0  0  0
  9 23  1  0  0  0  0
  9 24  1  0  0  0  0
 10 11  2  0  0  0  0
 11 13  1  0  0  0  0
 11 26  1  0  0  0  0
 12 14  1  0  0  0  0
 13 14  2  0  0  0  0
 13 27  1  0  0  0  0
 14 28  1  0  0  0  0
M  END
> <PUBCHEM_COMPOUND_CID>
683511

> <PUBCHEM_COMPOUND_CANONICALIZED>
1

> <PUBCHEM_CACTVS_COMPLEXITY>
332

> <PUBCHEM_CACTVS_HBOND_ACCEPTOR>
2

> <PUBCHEM_CACTVS_HBOND_DONOR>
1

> <PUBCHEM_CACTVS_ROTATABLE_BOND>
0

> <PUBCHEM_CACTVS_SUBSKEYS>
AAADccBzIAAAAAAAAAAAAAAAAAAAAAAAAAAsWIAAAAAWAACAAAAAHgAQAAAADQjBgAQAAAPAAACIACVSUACAAAAgAgAICIAIAEgIAAIAwQAEAAAAlgCIgYIQAAAMAAAAAAAAAAAAAAAAAAAAAAAAAAAAAA==

> <PUBCHEM_IUPAC_OPENEYE_NAME>
(1S,9R)-7,11-diazatricyclo[7.3.1.02,7]trideca-2,4-dien-6-one

> <PUBCHEM_IUPAC_CAS_NAME>
(1S,9R)-7,11-diazatricyclo[7.3.1.02,7]trideca-2,4-dien-6-one

> <PUBCHEM_IUPAC_NAME_MARKUP>
(1<I>S</I>,9<I>R</I>)-7,11-diazatricyclo[7.3.1.0<SUP>2,7</SUP>]trideca-2,4-dien-6-one

> <PUBCHEM_IUPAC_NAME>
(1S,9R)-7,11-diazatricyclo[7.3.1.02,7]trideca-2,4-dien-6-one

> <PUBCHEM_IUPAC_SYSTEMATIC_NAME>
(1S,9R)-7,11-diazatricyclo[7.3.1.02,7]trideca-2,4-dien-6-one

> <PUBCHEM_IUPAC_TRADITIONAL_NAME>
(1S,9R)-7,11-diazatricyclo[7.3.1.02,7]trideca-2,4-dien-6-one

> <PUBCHEM_IUPAC_INCHI>
InChI=1S/C11H14N2O/c14-11-3-1-2-10-9-4-8(5-12-6-9)7-13(10)11/h1-3,8-9,12H,4-7H2/t8-,9+/m1/s1

> <PUBCHEM_IUPAC_INCHIKEY>
ANJTVLIZGCUXLD-BDAKNGLRSA-N

> <PUBCHEM_XLOGP3_AA>
0.2

> <PUBCHEM_EXACT_MASS>
190.110613074

> <PUBCHEM_MOLECULAR_FORMULA>
C11H14N2O

> <PUBCHEM_MOLECULAR_WEIGHT>
190.24

> <PUBCHEM_OPENEYE_CAN_SMILES>
C1C2CNCC1C3=CC=CC(=O)N3C2

> <PUBCHEM_OPENEYE_ISO_SMILES>
C1[C@@H]2CNC[C@H]1C3=CC=CC(=O)N3C2

> <PUBCHEM_CACTVS_TPSA>
32.3

> <PUBCHEM_MONOISOTOPIC_WEIGHT>
190.110613074

> <PUBCHEM_TOTAL_CHARGE>
0

> <PUBCHEM_HEAVY_ATOM_COUNT>
14

> <PUBCHEM_ATOM_DEF_STEREO_COUNT>
2

> <PUBCHEM_ATOM_UDEF_STEREO_COUNT>
0

> <PUBCHEM_BOND_DEF_STEREO_COUNT>
0

> <PUBCHEM_BOND_UDEF_STEREO_COUNT>
0

> <PUBCHEM_ISOTOPIC_ATOM_COUNT>
0

> <PUBCHEM_COMPONENT_COUNT>
1

> <PUBCHEM_CACTVS_TAUTO_COUNT>
-1

> <PUBCHEM_COORDINATE_TYPE>
1
5
255

> <PUBCHEM_BONDANNOTATIONS>
10  11  8
11  13  8
12  14  8
13  14  8
2  10  8
2  12  8
4  15  6
5  16  5

$$$$
6708720
  -OEChem-10012202162D

 28 30  0     1  0  0  0  0  0999 V2000
    2.0000    0.0307    0.0000 O   0  0  0  0  0  0  0  0  0  0  0  0
    3.7657   -0.0960    0.0000 N   0  0  0  0  0  0  0  0  0  0  0  0
    7.8646    0.0452    0.0000 N   0  0  0  0  0  0  0  0  0  0  0  0
    6.0745    1.1764    0.0000 C   0  0  1  0  0  0  0  0  0  0  0  0
    5.8157    0.2105    0.0000 C   0  0  3  0  0  0  0  0  0  0  0  0
    5.3379    2.1591    0.0000 C   0  0  0  0  0  0  0  0  0  0  0  0
    4.0413    0.8653    0.0000 C   0  0  0  0  0  0  0  0  0  0  0  0
    7.5062    0.9788    0.0000 C   0  0  0  0  0  0  0  0  0  0  0  0
    7.0874   -0.5841    0.0000 C   0  0  0  0  0  0  0  0  0  0  0  0
    4.5947   -0.6551    0.0000 C   0  0  0  0  0  0  0  0  0  0  0  0
    4.5381   -1.6952    0.0000 C   0  0  0  0  0  0  0  0  0  0  0  0
    2.8225   -0.5381    0.0000 C   0  0  0  0  0  0  0  0  0  0  0  0
    3.6054   -2.1591    0.0000 C   0  0  0  0  0  0  0  0  0  0  0  0
    2.7418   -1.5766    0.0000 C   0  0  0  0  0  0  0  0  0  0  0  0
    6.2945    1.9975    0.0000 H   0  0  0  0  0  0  0  0  0  0  0  0
    6.3180    0.5740    0.0000 H   0  0  0  0  0  0  0  0  0  0  0  0
    5.6557    2.6914    0.0000 H   0  0  0  0  0  0  0  0  0  0  0  0
    4.7248    2.2510    0.0000 H   0  0  0  0  0  0  0  0  0  0  0  0
    4.0362    1.4853    0.0000 H   0  0  0  0  0  0  0  0  0  0  0  0
    3.4270    0.9491    0.0000 H   0  0  0  0  0  0  0  0  0  0  0  0
    8.1140    1.1011    0.0000 H   0  0  0  0  0  0  0  0  0  0  0  0
    7.4871    1.5985    0.0000 H   0  0  0  0  0  0  0  0  0  0  0  0
    6.7028   -1.0705    0.0000 H   0  0  0  0  0  0  0  0  0  0  0  0
    7.5284   -1.0200    0.0000 H   0  0  0  0  0  0  0  0  0  0  0  0
    8.4634   -0.1153    0.0000 H   0  0  0  0  0  0  0  0  0  0  0  0
    5.0560   -2.0360    0.0000 H   0  0  0  0  0  0  0  0  0  0  0  0
    3.5645   -2.7777    0.0000 H   0  0  0  0  0  0  0  0  0  0  0  0
    2.1836   -1.8462    0.0000 H   0  0  0  0  0  0  0  0  0  0  0  0
  1 12  2  0  0  0  0
  2  7  1  0  0  0  0
  2 10  1  0  0  0  0
  2 12  1  0  0  0  0
  3  8  1  0  0  0  0
  3  9  1  0  0  0  0
  3 25  1  0  0  0  0
  4  6  1  0  0  0  0
  4  7  1  0  0  0  0
  4  8  1  0  0  0  0
  4 15  1  1  0  0  0
  5  6  1  0  0  0  0
  5  9  1  0  0  0  0
  5 10  1  0  0  0  0
  5 16  1  0  0  0  0
  6 17  1  0  0  0  0
  6 18  1  0  0  0  0
  7 19  1  0  0  0  0
  7 20  1  0  0  0  0
  8 21  1  0  0  0  0
  8 22  1  0  0  0  0
  9 23  1  0  0  0  0
  9 24  1  0  0  0  0
 10 11  2  0  0  0  0
 11 13  1  0  0  0  0
 11 26  1  0  0  0  0
 12 14  1  0  0  0  0
 13 14  2  0  0  0  0
 13 27  1  0  0  0  0
 14 28  1  0  0  0  0
M  END
> <PUBCHEM_COMPOUND_CID>
6708720

> <PUBCHEM_COMPOUND_CANONICALIZED>
1

> <PUBCHEM_CACTVS_COMPLEXITY>
332

> <PUBCHEM_CACTVS_HBOND_ACCEPTOR>
2

> <PUBCHEM_CACTVS_HBOND_DONOR>
1

> <PUBCHEM_CACTVS_ROTATABLE_BOND>
0

> <PUBCHEM_CACTVS_SUBSKEYS>
AAADccBzIAAAAAAAAAAAAAAAAAAAAAAAAAAsWIAAAAAWAACAAAAAHgAQAAAADQjBgAQAAAPAAACIACVSUACAAAAgAgAICIAIAEgIAAIAwQAEAAAAlgCIgYIQAAAMAAAAAAAAAAAAAAAAAAAAAAAAAAAAAA==

> <PUBCHEM_IUPAC_OPENEYE_NAME>
(9R)-7,11-diazatricyclo[7.3.1.02,7]trideca-2,4-dien-6-one

> <PUBCHEM_IUPAC_CAS_NAME>
(9R)-7,11-diazatricyclo[7.3.1.02,7]trideca-2,4-dien-6-one

> <PUBCHEM_IUPAC_NAME_MARKUP>
(9<I>R</I>)-7,11-diazatricyclo[7.3.1.0<SUP>2,7</SUP>]trideca-2,4-dien-6-one

> <PUBCHEM_IUPAC_NAME>
(9R)-7,11-diazatricyclo[7.3.1.02,7]trideca-2,4-dien-6-one

> <PUBCHEM_IUPAC_SYSTEMATIC_NAME>
(9R)-7,11-diazatricyclo[7.3.1.02,7]trideca-2,4-dien-6-one

> <PUBCHEM_IUPAC_TRADITIONAL_NAME>
(9R)-7,11-diazatricyclo[7.3.1.02,7]trideca-2,4-dien-6-one

> <PUBCHEM_IUPAC_INCHI>
InChI=1S/C11H14N2O/c14-11-3-1-2-10-9-4-8(5-12-6-9)7-13(10)11/h1-3,8-9,12H,4-7H2/t8-,9?/m1/s1

> <PUBCHEM_IUPAC_INCHIKEY>
ANJTVLIZGCUXLD-VEDVMXKPSA-N

> <PUBCHEM_XLOGP3_AA>
0.2

> <PUBCHEM_EXACT_MASS>
190.110613074

> <PUBCHEM_MOLECULAR_FORMULA>
C11H14N2O

> <PUBCHEM_MOLECULAR_WEIGHT>
190.24

> <PUBCHEM_OPENEYE_CAN_SMILES>
C1C2CNCC1C3=CC=CC(=O)N3C2

> <PUBCHEM_OPENEYE_ISO_SMILES>
C1[C@@H]2CNCC1C3=CC=CC(=O)N3C2

> <PUBCHEM_CACTVS_TPSA>
32.3

> <PUBCHEM_MONOISOTOPIC_WEIGHT>
190.110613074

> <PUBCHEM_TOTAL_CHARGE>
0

> <PUBCHEM_HEAVY_ATOM_COUNT>
14

> <PUBCHEM_ATOM_DEF_STEREO_COUNT>
1

> <PUBCHEM_ATOM_UDEF_STEREO_COUNT>
1

> <PUBCHEM_BOND_DEF_STEREO_COUNT>
0

> <PUBCHEM_BOND_UDEF_STEREO_COUNT>
0

> <PUBCHEM_ISOTOPIC_ATOM_COUNT>
0

> <PUBCHEM_COMPONENT_COUNT>
1

> <PUBCHEM_CACTVS_TAUTO_COUNT>
-1

> <PUBCHEM_COORDINATE_TYPE>
1
5
255

> <PUBCHEM_BONDANNOTATIONS>
10  11  8
11  13  8
12  14  8
13  14  8
2  10  8
2  12  8
4  15  5
5  6  3

$$$$
1549781
  -OEChem-10012202162D

 28 30  0     1  0  0  0  0  0999 V2000
    2.0000    0.0307    0.0000 O   0  0  0  0  0  0  0  0  0  0  0  0
    3.7657   -0.0960    0.0000 N   0  0  0  0  0  0  0  0  0  0  0  0
    7.8646    0.0452    0.0000 N   0  0  0  0  0  0  0  0  0  0  0  0
    6.0745    1.1764    0.0000 C   0  0  1  0  0  0  0  0  0  0  0  0
    5.8157    0.2105    0.0000 C   0  0  2  0  0  0  0  0  0  0  0  0
    5.3379    2.1591    0.0000 C   0  0  0  0  0  0  0  0  0  0  0  0
    4.0413    0.8653    0.0000 C   0  0  0  0  0  0  0  0  0  0  0  0
    7.5062    0.9788    0.0000 C   0  0  0  0  0  0  0  0  0  0  0  0
    7.0874   -0.5841    0.0000 C   0  0  0  0  0  0  0  0  0  0  0  0
    4.5947   -0.6551    0.0000 C   0  0  0  0  0  0  0  0  0  0  0  0
    4.5381   -1.6952    0.0000 C   0  0  0  0  0  0  0  0  0  0  0  0
    2.8225   -0.5381    0.0000 C   0  0  0  0  0  0  0  0  0  0  0  0
    3.6054   -2.1591    0.0000 C   0  0  0  0  0  0  0  0  0  0  0  0
    2.7418   -1.5766    0.0000 C   0  0  0  0  0  0  0  0  0  0  0  0
    6.2945    1.9975    0.0000 H   0  0  0  0  0  0  0  0  0  0  0  0
    5.5957   -0.6105    0.0000 H   0  0  0  0  0  0  0  0  0  0  0  0
    5.6557    2.6914    0.0000 H   0  0  0  0  0  0  0  0  0  0  0  0
    4.7248    2.2510    0.0000 H   0  0  0  0  0  0  0  0  0  0  0  0
    4.0362    1.4853    0.0000 H   0  0  0  0  0  0  0  0  0  0  0  0
    3.4270    0.9491    0.0000 H   0  0  0  0  0  0  0  0  0  0  0  0
    8.1140    1.1011    0.0000 H   0  0  0  0  0  0  0  0  0  0  0  0
    7.4871    1.5985    0.0000 H   0  0  0  0  0  0  0  0  0  0  0  0
    6.7028   -1.0705    0.0000 H   0  0  0  0  0  0  0  0  0  0  0  0
    7.5284   -1.0200    0.0000 H   0  0  0  0  0  0  0  0  0  0  0  0
    8.4634   -0.1153    0.0000 H   0  0  0  0  0  0  0  0  0  0  0  0
    5.0560   -2.0360    0.0000 H   0  0  0  0  0  0  0  0  0  0  0  0
    3.5645   -2.7777    0.0000 H   0  0  0  0  0  0  0  0  0  0  0  0
    2.1836   -1.8462    0.0000 H   0  0  0  0  0  0  0  0  0  0  0  0
  1 12  2  0  0  0  0
  2  7  1  0  0  0  0
  2 10  1  0  0  0  0
  2 12  1  0  0  0  0
  3  8  1  0  0  0  0
  3  9  1  0  0  0  0
  3 25  1  0  0  0  0
  4  6  1  0  0  0  0
  4  7  1  0  0  0  0
  4  8  1  0  0  0  0
  4 15  1  1  0  0  0
  5  6  1  0  0  0  0
  5  9  1  0  0  0  0
  5 10  1  0  0  0  0
  5 16  1  1  0  0  0
  6 17  1  0  0  0  0
  6 18  1  0  0  0  0
  7 19  1  0  0  0  0
  7 20  1  0  0  0  0
  8 21  1  0  0  0  0
  8 22  1  0  0  0  0
  9 23  1  0  0  0  0
  9 24  1  0  0  0  0
 10 11  2  0  0  0  0
 11 13  1  0  0  0  0
 11 26  1  0  0  0  0
 12 14  1  0  0  0  0
 13 14  2  0  0  0  0
 13 27  1  0  0  0  0
 14 28  1  0  0  0  0
M  END
> <PUBCHEM_COMPOUND_CID>
1549781

> <PUBCHEM_COMPOUND_CANONICALIZED>
1

> <PUBCHEM_CACTVS_COMPLEXITY>
332

> <PUBCHEM_CACTVS_HBOND_ACCEPTOR>
2

> <PUBCHEM_CACTVS_HBOND_DONOR>
1

> <PUBCHEM_CACTVS_ROTATABLE_BOND>
0

> <PUBCHEM_CACTVS_SUBSKEYS>
AAADccBzIAAAAAAAAAAAAAAAAAAAAAAAAAAsWIAAAAAWAACAAAAAHgAQAAAADQjBgAQAAAPAAACIACVSUACAAAAgAgAICIAIAEgIAAIAwQAEAAAAlgCIgYIQAAAMAAAAAAAAAAAAAAAAAAAAAAAAAAAAAA==

> <PUBCHEM_IUPAC_OPENEYE_NAME>
(1R,9R)-7,11-diazatricyclo[7.3.1.02,7]trideca-2,4-dien-6-one

> <PUBCHEM_IUPAC_CAS_NAME>
(1R,9R)-7,11-diazatricyclo[7.3.1.02,7]trideca-2,4-dien-6-one

> <PUBCHEM_IUPAC_NAME_MARKUP>
(1<I>R</I>,9<I>R</I>)-7,11-diazatricyclo[7.3.1.0<SUP>2,7</SUP>]trideca-2,4-dien-6-one

> <PUBCHEM_IUPAC_NAME>
(1R,9R)-7,11-diazatricyclo[7.3.1.02,7]trideca-2,4-dien-6-one

> <PUBCHEM_IUPAC_SYSTEMATIC_NAME>
(1R,9R)-7,11-diazatricyclo[7.3.1.02,7]trideca-2,4-dien-6-one

> <PUBCHEM_IUPAC_TRADITIONAL_NAME>
(1R,9R)-7,11-diazatricyclo[7.3.1.02,7]trideca-2,4-dien-6-one

> <PUBCHEM_IUPAC_INCHI>
InChI=1S/C11H14N2O/c14-11-3-1-2-10-9-4-8(5-12-6-9)7-13(10)11/h1-3,8-9,12H,4-7H2/t8-,9-/m1/s1

> <PUBCHEM_IUPAC_INCHIKEY>
ANJTVLIZGCUXLD-RKDXNWHRSA-N

> <PUBCHEM_XLOGP3_AA>
0.2

> <PUBCHEM_EXACT_MASS>
190.110613074

> <PUBCHEM_MOLECULAR_FORMULA>
C11H14N2O

> <PUBCHEM_MOLECULAR_WEIGHT>
190.24

> <PUBCHEM_OPENEYE_CAN_SMILES>
C1C2CNCC1C3=CC=CC(=O)N3C2

> <PUBCHEM_OPENEYE_ISO_SMILES>
C1[C@@H]2CNC[C@@H]1C3=CC=CC(=O)N3C2

> <PUBCHEM_CACTVS_TPSA>
32.3

> <PUBCHEM_MONOISOTOPIC_WEIGHT>
190.110613074

> <PUBCHEM_TOTAL_CHARGE>
0

> <PUBCHEM_HEAVY_ATOM_COUNT>
14

> <PUBCHEM_ATOM_DEF_STEREO_COUNT>
2

> <PUBCHEM_ATOM_UDEF_STEREO_COUNT>
0

> <PUBCHEM_BOND_DEF_STEREO_COUNT>
0

> <PUBCHEM_BOND_UDEF_STEREO_COUNT>
0

> <PUBCHEM_ISOTOPIC_ATOM_COUNT>
0

> <PUBCHEM_COMPONENT_COUNT>
1

> <PUBCHEM_CACTVS_TAUTO_COUNT>
-1

> <PUBCHEM_COORDINATE_TYPE>
1
5
255

> <PUBCHEM_BONDANNOTATIONS>
10  11  8
11  13  8
12  14  8
13  14  8
2  10  8
2  12  8
4  15  5
5  16  5

$$$$
