10404245
  -OEChem-10012202422D

 48 50  0     1  0  0  0  0  0999 V2000
   11.6065   -0.2553    0.0000 O   0  0  0  0  0  0  0  0  0  0  0  0
   11.6065   -1.8647    0.0000 O   0  0  0  0  0  0  0  0  0  0  0  0
    2.0000   -0.5600    0.0000 O   0  0  0  0  0  0  0  0  0  0  0  0
    2.0000    1.4400    0.0000 O   0  0  0  0  0  0  0  0  0  0  0  0
    7.1962   -0.5600    0.0000 C   0  0  1  0  0  0  0  0  0  0  0  0
    6.3301   -0.0600    0.0000 C   0  0  2  0  0  0  0  0  0  0  0  0
    8.0622   -0.0600    0.0000 C   0  0  0  0  0  0  0  0  0  0  0  0
    5.4641   -0.5600    0.0000 C   0  0  0  0  0  0  0  0  0  0  0  0
    7.1962   -1.5600    0.0000 C   0  0  0  0  0  0  0  0  0  0  0  0
    6.3301    0.9400    0.0000 C   0  0  0  0  0  0  0  0  0  0  0  0
    8.9282   -0.5600    0.0000 C   0  0  0  0  0  0  0  0  0  0  0  0
    4.5981   -0.0600    0.0000 C   0  0  0  0  0  0  0  0  0  0  0  0
    9.7942   -0.0600    0.0000 C   0  0  0  0  0  0  0  0  0  0  0  0
    8.9282   -1.5600    0.0000 C   0  0  0  0  0  0  0  0  0  0  0  0
    3.7320   -0.5600    0.0000 C   0  0  0  0  0  0  0  0  0  0  0  0
    4.5981    0.9400    0.0000 C   0  0  0  0  0  0  0  0  0  0  0  0
   10.6603   -0.5600    0.0000 C   0  0  0  0  0  0  0  0  0  0  0  0
   10.6603   -1.5600    0.0000 C   0  0  0  0  0  0  0  0  0  0  0  0
    9.7942   -2.0600    0.0000 C   0  0  0  0  0  0  0  0  0  0  0  0
    2.8660   -0.0600    0.0000 C   0  0  0  0  0  0  0  0  0  0  0  0
    3.7320    1.4400    0.0000 C   0  0  0  0  0  0  0  0  0  0  0  0
    2.8660    0.9400    0.0000 C   0  0  0  0  0  0  0  0  0  0  0  0
   12.1901   -1.0600    0.0000 C   0  0  0  0  0  0  0  0  0  0  0  0
    2.0000   -1.5600    0.0000 C   0  0  0  0  0  0  0  0  0  0  0  0
    6.6592   -0.8700    0.0000 H   0  0  0  0  0  0  0  0  0  0  0  0
    6.8671    0.2500    0.0000 H   0  0  0  0  0  0  0  0  0  0  0  0
    8.4607    0.4149    0.0000 H   0  0  0  0  0  0  0  0  0  0  0  0
    7.6636    0.4149    0.0000 H   0  0  0  0  0  0  0  0  0  0  0  0
    5.0656   -1.0350    0.0000 H   0  0  0  0  0  0  0  0  0  0  0  0
    5.8626   -1.0350    0.0000 H   0  0  0  0  0  0  0  0  0  0  0  0
    6.5762   -1.5600    0.0000 H   0  0  0  0  0  0  0  0  0  0  0  0
    7.1962   -2.1800    0.0000 H   0  0  0  0  0  0  0  0  0  0  0  0
    7.8162   -1.5600    0.0000 H   0  0  0  0  0  0  0  0  0  0  0  0
    6.9501    0.9400    0.0000 H   0  0  0  0  0  0  0  0  0  0  0  0
    6.3301    1.5600    0.0000 H   0  0  0  0  0  0  0  0  0  0  0  0
    5.7101    0.9400    0.0000 H   0  0  0  0  0  0  0  0  0  0  0  0
    9.7942    0.5600    0.0000 H   0  0  0  0  0  0  0  0  0  0  0  0
    8.3913   -1.8700    0.0000 H   0  0  0  0  0  0  0  0  0  0  0  0
    3.7320   -1.1800    0.0000 H   0  0  0  0  0  0  0  0  0  0  0  0
    5.1350    1.2500    0.0000 H   0  0  0  0  0  0  0  0  0  0  0  0
    9.7942   -2.6800    0.0000 H   0  0  0  0  0  0  0  0  0  0  0  0
    3.7320    2.0600    0.0000 H   0  0  0  0  0  0  0  0  0  0  0  0
   12.6510   -1.4747    0.0000 H   0  0  0  0  0  0  0  0  0  0  0  0
   12.6510   -0.6453    0.0000 H   0  0  0  0  0  0  0  0  0  0  0  0
    2.0000    2.0600    0.0000 H   0  0  0  0  0  0  0  0  0  0  0  0
    1.3800   -1.5600    0.0000 H   0  0  0  0  0  0  0  0  0  0  0  0
    2.0000   -2.1800    0.0000 H   0  0  0  0  0  0  0  0  0  0  0  0
    2.6200   -1.5600    0.0000 H   0  0  0  0  0  0  0  0  0  0  0  0
  1 17  1  0  0  0  0
  1 23  1  0  0  0  0
  2 18  1  0  0  0  0
  2 23  1  0  0  0  0
  3 20  1  0  0  0  0
  3 24  1  0  0  0  0
  4 22  1  0  0  0  0
  4 45  1  0  0  0  0
  5  6  1  0  0  0  0
  5  7  1  0  0  0  0
  5  9  1  1  0  0  0
  5 25  1  0  0  0  0
  6  8  1  0  0  0  0
  6 10  1  6  0  0  0
  6 26  1  0  0  0  0
  7 11  1  0  0  0  0
  7 27  1  0  0  0  0
  7 28  1  0  0  0  0
  8 12  1  0  0  0  0
  8 29  1  0  0  0  0
  8 30  1  0  0  0  0
  9 31  1  0  0  0  0
  9 32  1  0  0  0  0
  9 33  1  0  0  0  0
 10 34  1  0  0  0  0
 10 35  1  0  0  0  0
 10 36  1  0  0  0  0
 11 13  2  0  0  0  0
 11 14  1  0  0  0  0
 12 15  2  0  0  0  0
 12 16  1  0  0  0  0
 13 17  1  0  0  0  0
 13 37  1  0  0  0  0
 14 19  2  0  0  0  0
 14 38  1  0  0  0  0
 15 20  1  0  0  0  0
 15 39  1  0  0  0  0
 16 21  2  0  0  0  0
 16 40  1  0  0  0  0
 17 18  2  0  0  0  0
 18 19  1  0  0  0  0
 19 41  1  0  0  0  0
 20 22  2  0  0  0  0
 21 22  1  0  0  0  0
 21 42  1  0  0  0  0
 23 43  1  0  0  0  0
 23 44  1  0  0  0  0
 24 46  1  0  0  0  0
 24 47  1  0  0  0  0
 24 48  1  0  0  0  0
M  END
> <PUBCHEM_COMPOUND_CID>
10404245

> <PUBCHEM_COMPOUND_CANONICALIZED>
1

> <PUBCHEM_CACTVS_COMPLEXITY>
388

> <PUBCHEM_CACTVS_HBOND_ACCEPTOR>
4

> <PUBCHEM_CACTVS_HBOND_DONOR>
1

> <PUBCHEM_CACTVS_ROTATABLE_BOND>
6

> <PUBCHEM_CACTVS_SUBSKEYS>
AAADceB4OAAAAAAAAAAAAAAAAAAAASAAAAAwYAAAAAAAAEgBQAAAGgAACAAADQSAmAMyDoAABgCAAiBCAAACCAAgIAAIiAAGiIgdJiKGMRqgcCMkwBEPuAeAwPAOoAABAAAAQABAAAIAAACAAAAAAAAAAA==

> <PUBCHEM_IUPAC_OPENEYE_NAME>
4-[(2S,3R)-4-(1,3-benzodioxol-5-yl)-2,3-dimethyl-butyl]-2-methoxy-phenol

> <PUBCHEM_IUPAC_CAS_NAME>
4-[(2S,3R)-4-(1,3-benzodioxol-5-yl)-2,3-dimethylbutyl]-2-methoxyphenol

> <PUBCHEM_IUPAC_NAME_MARKUP>
4-[(2<I>S</I>,3<I>R</I>)-4-(1,3-benzodioxol-5-yl)-2,3-dimethylbutyl]-2-methoxyphenol

> <PUBCHEM_IUPAC_NAME>
4-[(2S,3R)-4-(1,3-benzodioxol-5-yl)-2,3-dimethylbutyl]-2-methoxyphenol

> <PUBCHEM_IUPAC_SYSTEMATIC_NAME>
4-[(2S,3R)-4-(1,3-benzodioxol-5-yl)-2,3-dimethyl-butyl]-2-methoxy-phenol

> <PUBCHEM_IUPAC_TRADITIONAL_NAME>
4-[(2S,3R)-4-(1,3-benzodioxol-5-yl)-2,3-dimethyl-butyl]-2-methoxy-phenol

> <PUBCHEM_IUPAC_INCHI>
InChI=1S/C20H24O4/c1-13(8-15-4-6-17(21)19(10-15)22-3)14(2)9-16-5-7-18-20(11-16)24-12-23-18/h4-7,10-11,13-14,21H,8-9,12H2,1-3H3/t13-,14+/m0/s1

> <PUBCHEM_IUPAC_INCHIKEY>
QDDILOVMGWUNGD-UONOGXRCSA-N

> <PUBCHEM_XLOGP3_AA>
5.2

> <PUBCHEM_EXACT_MASS>
328.16745924

> <PUBCHEM_MOLECULAR_FORMULA>
C20H24O4

> <PUBCHEM_MOLECULAR_WEIGHT>
328.4

> <PUBCHEM_OPENEYE_CAN_SMILES>
CC(CC1=CC2=C(C=C1)OCO2)C(C)CC3=CC(=C(C=C3)O)OC

> <PUBCHEM_OPENEYE_ISO_SMILES>
C[C@H](CC1=CC2=C(C=C1)OCO2)[C@@H](C)CC3=CC(=C(C=C3)O)OC

> <PUBCHEM_CACTVS_TPSA>
47.9

> <PUBCHEM_MONOISOTOPIC_WEIGHT>
328.16745924

> <PUBCHEM_TOTAL_CHARGE>
0

> <PUBCHEM_HEAVY_ATOM_COUNT>
24

> <PUBCHEM_ATOM_DEF_STEREO_COUNT>
2

> <PUBCHEM_ATOM_UDEF_STEREO_COUNT>
0

> <PUBCHEM_BOND_DEF_STEREO_COUNT>
0

> <PUBCHEM_BOND_UDEF_STEREO_COUNT>
0

> <PUBCHEM_ISOTOPIC_ATOM_COUNT>
0

> <PUBCHEM_COMPONENT_COUNT>
1

> <PUBCHEM_CACTVS_TAUTO_COUNT>
3

> <PUBCHEM_COORDINATE_TYPE>
1
5
255

> <PUBCHEM_BONDANNOTATIONS>
11  13  8
11  14  8
12  15  8
12  16  8
13  17  8
14  19  8
15  20  8
16  21  8
17  18  8
18  19  8
20  22  8
21  22  8
5  9  5
6  10  6

$$$$
