11169063
  -OEChem-10012202132D

 68 72  0     1  0  0  0  0  0999 V2000
    9.0564   -1.4993    0.0000 O   0  0  0  0  0  0  0  0  0  0  0  0
   10.7807    0.5074    0.0000 O   0  0  0  0  0  0  0  0  0  0  0  0
   11.5836    2.0983    0.0000 O   0  0  0  0  0  0  0  0  0  0  0  0
   11.6525   -0.9893    0.0000 O   0  0  0  0  0  0  0  0  0  0  0  0
   11.6602   -2.9893    0.0000 O   0  0  0  0  0  0  0  0  0  0  0  0
    9.9320   -3.9959    0.0000 O   0  0  0  0  0  0  0  0  0  0  0  0
    9.3187    3.3496    0.0000 O   0  0  0  0  0  0  0  0  0  0  0  0
    9.0157    1.7793    0.0000 O   0  0  0  0  0  0  0  0  0  0  0  0
   11.1312    4.5476    0.0000 O   0  0  0  0  0  0  0  0  0  0  0  0
    7.2785   -1.4888    0.0000 O   0  0  0  0  0  0  0  0  0  0  0  0
    9.0602   -4.5476    0.0000 O   0  0  0  0  0  0  0  0  0  0  0  0
    5.5301   -4.5234    0.0000 O   0  0  0  0  0  0  0  0  0  0  0  0
    5.5301   -1.5234    0.0000 O   0  0  0  0  0  0  0  0  0  0  0  0
    2.0000   -2.4993    0.0000 O   0  0  0  0  0  0  0  0  0  0  0  0
    2.0000   -4.5476    0.0000 O   0  0  0  0  0  0  0  0  0  0  0  0
    9.9205   -0.9960    0.0000 C   0  0  1  0  0  0  0  0  0  0  0  0
   10.7884   -1.4926    0.0000 C   0  0  2  0  0  0  0  0  0  0  0  0
   10.7923   -2.4926    0.0000 C   0  0  1  0  0  0  0  0  0  0  0  0
    9.9282   -2.9960    0.0000 C   0  0  2  0  0  0  0  0  0  0  0  0
    9.0602   -2.4993    0.0000 C   0  0  2  0  0  0  0  0  0  0  0  0
   10.2709    3.0443    0.0000 C   0  0  1  0  0  0  0  0  0  0  0  0
    9.9656    2.0920    0.0000 C   0  0  2  0  0  0  0  0  0  0  0  0
   10.7769    1.5074    0.0000 C   0  0  2  0  0  0  0  0  0  0  0  0
    9.9166    0.0040    0.0000 C   0  0  0  0  0  0  0  0  0  0  0  0
   11.2709    3.0481    0.0000 C   0  0  0  0  0  0  0  0  0  0  0  0
    8.1962   -3.0026    0.0000 C   0  0  0  0  0  0  0  0  0  0  0  0
   10.2671    4.0442    0.0000 C   0  0  0  0  0  0  0  0  0  0  0  0
    7.2901   -2.4888    0.0000 C   0  0  0  0  0  0  0  0  0  0  0  0
    8.1962   -4.0442    0.0000 C   0  0  0  0  0  0  0  0  0  0  0  0
    6.3961   -3.0234    0.0000 C   0  0  0  0  0  0  0  0  0  0  0  0
    7.2901   -4.5581    0.0000 C   0  0  0  0  0  0  0  0  0  0  0  0
    6.3961   -4.0234    0.0000 C   0  0  0  0  0  0  0  0  0  0  0  0
    5.5301   -2.5234    0.0000 C   0  0  0  0  0  0  0  0  0  0  0  0
    4.6641   -3.0234    0.0000 C   0  0  0  0  0  0  0  0  0  0  0  0
    4.6641   -4.0234    0.0000 C   0  0  0  0  0  0  0  0  0  0  0  0
    3.7702   -2.4888    0.0000 C   0  0  0  0  0  0  0  0  0  0  0  0
    3.7702   -4.5581    0.0000 C   0  0  0  0  0  0  0  0  0  0  0  0
    2.8641   -3.0026    0.0000 C   0  0  0  0  0  0  0  0  0  0  0  0
    2.8641   -4.0442    0.0000 C   0  0  0  0  0  0  0  0  0  0  0  0
    2.0038   -1.4993    0.0000 C   0  0  0  0  0  0  0  0  0  0  0  0
    9.3824   -0.6880    0.0000 H   0  0  0  0  0  0  0  0  0  0  0  0
   10.7860   -0.8726    0.0000 H   0  0  0  0  0  0  0  0  0  0  0  0
   10.7947   -3.1126    0.0000 H   0  0  0  0  0  0  0  0  0  0  0  0
    9.3925   -3.3080    0.0000 H   0  0  0  0  0  0  0  0  0  0  0  0
    8.3225   -2.0771    0.0000 H   0  0  0  0  0  0  0  0  0  0  0  0
    9.8710    1.4793    0.0000 H   0  0  0  0  0  0  0  0  0  0  0  0
   10.2255    1.2238    0.0000 H   0  0  0  0  0  0  0  0  0  0  0  0
    9.7023    0.5858    0.0000 H   0  0  0  0  0  0  0  0  0  0  0  0
    9.3065   -0.1060    0.0000 H   0  0  0  0  0  0  0  0  0  0  0  0
   11.8769    3.1794    0.0000 H   0  0  0  0  0  0  0  0  0  0  0  0
   11.2038    3.6645    0.0000 H   0  0  0  0  0  0  0  0  0  0  0  0
   10.0528    4.6260    0.0000 H   0  0  0  0  0  0  0  0  0  0  0  0
    9.6569    3.9342    0.0000 H   0  0  0  0  0  0  0  0  0  0  0  0
   12.1907   -1.2972    0.0000 H   0  0  0  0  0  0  0  0  0  0  0  0
   12.1960   -2.6772    0.0000 H   0  0  0  0  0  0  0  0  0  0  0  0
   10.4702   -4.3039    0.0000 H   0  0  0  0  0  0  0  0  0  0  0  0
    9.1875    3.9556    0.0000 H   0  0  0  0  0  0  0  0  0  0  0  0
    8.5534    2.1924    0.0000 H   0  0  0  0  0  0  0  0  0  0  0  0
    7.2829   -5.1781    0.0000 H   0  0  0  0  0  0  0  0  0  0  0  0
   11.1288    5.1676    0.0000 H   0  0  0  0  0  0  0  0  0  0  0  0
    6.7380   -1.1851    0.0000 H   0  0  0  0  0  0  0  0  0  0  0  0
    9.0579   -5.1676    0.0000 H   0  0  0  0  0  0  0  0  0  0  0  0
    3.7773   -1.8688    0.0000 H   0  0  0  0  0  0  0  0  0  0  0  0
    3.7773   -5.1781    0.0000 H   0  0  0  0  0  0  0  0  0  0  0  0
    2.0024   -5.1676    0.0000 H   0  0  0  0  0  0  0  0  0  0  0  0
    2.6238   -1.5017    0.0000 H   0  0  0  0  0  0  0  0  0  0  0  0
    2.0062   -0.8793    0.0000 H   0  0  0  0  0  0  0  0  0  0  0  0
    1.3839   -1.4969    0.0000 H   0  0  0  0  0  0  0  0  0  0  0  0
  1 16  1  0  0  0  0
  1 20  1  0  0  0  0
 23  2  1  1  0  0  0
  2 24  1  0  0  0  0
  3 23  1  0  0  0  0
  3 25  1  0  0  0  0
 17  4  1  1  0  0  0
  4 54  1  0  0  0  0
 18  5  1  6  0  0  0
  5 55  1  0  0  0  0
 19  6  1  1  0  0  0
  6 56  1  0  0  0  0
 21  7  1  6  0  0  0
  7 57  1  0  0  0  0
 22  8  1  6  0  0  0
  8 58  1  0  0  0  0
  9 27  1  0  0  0  0
  9 60  1  0  0  0  0
 10 28  1  0  0  0  0
 10 61  1  0  0  0  0
 11 29  1  0  0  0  0
 11 62  1  0  0  0  0
 12 32  1  0  0  0  0
 12 35  1  0  0  0  0
 13 33  2  0  0  0  0
 14 38  1  0  0  0  0
 14 40  1  0  0  0  0
 15 39  1  0  0  0  0
 15 65  1  0  0  0  0
 16 17  1  0  0  0  0
 16 24  1  6  0  0  0
 16 41  1  0  0  0  0
 17 18  1  0  0  0  0
 17 42  1  0  0  0  0
 18 19  1  0  0  0  0
 18 43  1  0  0  0  0
 19 20  1  0  0  0  0
 19 44  1  0  0  0  0
 20 26  1  0  0  0  0
 20 45  1  1  0  0  0
 21 22  1  0  0  0  0
 21 25  1  0  0  0  0
 21 27  1  0  0  0  0
 22 23  1  0  0  0  0
 22 46  1  0  0  0  0
 23 47  1  0  0  0  0
 24 48  1  0  0  0  0
 24 49  1  0  0  0  0
 25 50  1  0  0  0  0
 25 51  1  0  0  0  0
 26 28  2  0  0  0  0
 26 29  1  0  0  0  0
 27 52  1  0  0  0  0
 27 53  1  0  0  0  0
 28 30  1  0  0  0  0
 29 31  2  0  0  0  0
 30 32  2  0  0  0  0
 30 33  1  0  0  0  0
 31 32  1  0  0  0  0
 31 59  1  0  0  0  0
 33 34  1  0  0  0  0
 34 35  1  0  0  0  0
 34 36  2  0  0  0  0
 35 37  2  0  0  0  0
 36 38  1  0  0  0  0
 36 63  1  0  0  0  0
 37 39  1  0  0  0  0
 37 64  1  0  0  0  0
 38 39  2  0  0  0  0
 40 66  1  0  0  0  0
 40 67  1  0  0  0  0
 40 68  1  0  0  0  0
M  END
> <PUBCHEM_COMPOUND_CID>
11169063

> <PUBCHEM_COMPOUND_CANONICALIZED>
1

> <PUBCHEM_CACTVS_COMPLEXITY>
907

> <PUBCHEM_CACTVS_HBOND_ACCEPTOR>
15

> <PUBCHEM_CACTVS_HBOND_DONOR>
9

> <PUBCHEM_CACTVS_ROTATABLE_BOND>
6

> <PUBCHEM_CACTVS_SUBSKEYS>
AAADceB4PAAAAAAAAAAAAAAAAAAAASAAAAA0aIEAAAAAAACRQAAAGgAACAAADFSwmAMyDoAABgCIAqBSAAACCAAkIAAAiAEGiMgdNzaGNBqieWOl4BUPuYfK7PzOIQADCAAIQABCAAYQABCAAAAAAAAAAA==

> <PUBCHEM_IUPAC_OPENEYE_NAME>
2-[(2S,3R,4R,5S,6R)-6-[[(2R,3R,4R)-3,4-dihydroxy-4-(hydroxymethyl)tetrahydrofuran-2-yl]oxymethyl]-3,4,5-trihydroxy-tetrahydropyran-2-yl]-1,3,6-trihydroxy-7-methoxy-xanthen-9-one

> <PUBCHEM_IUPAC_CAS_NAME>
2-[(2S,3R,4R,5S,6R)-6-[[(2R,3R,4R)-3,4-dihydroxy-4-(hydroxymethyl)-2-oxolanyl]oxymethyl]-3,4,5-trihydroxy-2-oxanyl]-1,3,6-trihydroxy-7-methoxy-9-xanthenone

> <PUBCHEM_IUPAC_NAME_MARKUP>
2-[(2<I>S</I>,3<I>R</I>,4<I>R</I>,5<I>S</I>,6<I>R</I>)-6-[[(2<I>R</I>,3<I>R</I>,4<I>R</I>)-3,4-dihydroxy-4-(hydroxymethyl)oxolan-2-yl]oxymethyl]-3,4,5-trihydroxyoxan-2-yl]-1,3,6-trihydroxy-7-methoxyxanthen-9-one

> <PUBCHEM_IUPAC_NAME>
2-[(2S,3R,4R,5S,6R)-6-[[(2R,3R,4R)-3,4-dihydroxy-4-(hydroxymethyl)oxolan-2-yl]oxymethyl]-3,4,5-trihydroxyoxan-2-yl]-1,3,6-trihydroxy-7-methoxyxanthen-9-one

> <PUBCHEM_IUPAC_SYSTEMATIC_NAME>
2-[(2S,3R,4R,5S,6R)-6-[[(2R,3R,4R)-4-(hydroxymethyl)-3,4-bis(oxidanyl)oxolan-2-yl]oxymethyl]-3,4,5-tris(oxidanyl)oxan-2-yl]-7-methoxy-1,3,6-tris(oxidanyl)xanthen-9-one

> <PUBCHEM_IUPAC_TRADITIONAL_NAME>
2-[(2S,3R,4R,5S,6R)-6-[[(2R,3R,4R)-3,4-dihydroxy-4-methylol-tetrahydrofuran-2-yl]oxymethyl]-3,4,5-trihydroxy-tetrahydropyran-2-yl]-1,3,6-trihydroxy-7-methoxy-xanthone

> <PUBCHEM_IUPAC_INCHI>
InChI=1S/C25H28O15/c1-36-12-2-8-11(3-9(12)27)39-13-4-10(28)15(19(31)16(13)17(8)29)22-21(33)20(32)18(30)14(40-22)5-37-24-23(34)25(35,6-26)7-38-24/h2-4,14,18,20-24,26-28,30-35H,5-7H2,1H3/t14-,18-,20+,21-,22+,23+,24-,25-/m1/s1

> <PUBCHEM_IUPAC_INCHIKEY>
LLJUCXMVRPAONX-AYATVRNWSA-N

> <PUBCHEM_XLOGP3_AA>
-1.8

> <PUBCHEM_EXACT_MASS>
568.14282018

> <PUBCHEM_MOLECULAR_FORMULA>
C25H28O15

> <PUBCHEM_MOLECULAR_WEIGHT>
568.5

> <PUBCHEM_OPENEYE_CAN_SMILES>
COC1=C(C=C2C(=C1)C(=O)C3=C(O2)C=C(C(=C3O)C4C(C(C(C(O4)COC5C(C(CO5)(CO)O)O)O)O)O)O)O

> <PUBCHEM_OPENEYE_ISO_SMILES>
COC1=C(C=C2C(=C1)C(=O)C3=C(O2)C=C(C(=C3O)[C@H]4[C@@H]([C@H]([C@@H]([C@H](O4)CO[C@H]5[C@@H]([C@](CO5)(CO)O)O)O)O)O)O)O

> <PUBCHEM_CACTVS_TPSA>
245

> <PUBCHEM_MONOISOTOPIC_WEIGHT>
568.14282018

> <PUBCHEM_TOTAL_CHARGE>
0

> <PUBCHEM_HEAVY_ATOM_COUNT>
40

> <PUBCHEM_ATOM_DEF_STEREO_COUNT>
8

> <PUBCHEM_ATOM_UDEF_STEREO_COUNT>
0

> <PUBCHEM_BOND_DEF_STEREO_COUNT>
0

> <PUBCHEM_BOND_UDEF_STEREO_COUNT>
0

> <PUBCHEM_ISOTOPIC_ATOM_COUNT>
0

> <PUBCHEM_COMPONENT_COUNT>
1

> <PUBCHEM_CACTVS_TAUTO_COUNT>
-1

> <PUBCHEM_COORDINATE_TYPE>
1
5
255

> <PUBCHEM_BONDANNOTATIONS>
12  32  8
12  35  8
16  24  6
23  2  5
20  45  5
26  28  8
26  29  8
28  30  8
29  31  8
30  32  8
30  33  8
31  32  8
33  34  8
34  35  8
34  36  8
35  37  8
36  38  8
37  39  8
38  39  8
17  4  5
18  5  6
19  6  5
21  7  6
22  8  6

$$$$
