11686063
  -OEChem-10012202082D

 84 88  0     1  0  0  0  0  0999 V2000
    9.2182   -0.4378    0.0000 O   0  0  0  0  0  0  0  0  0  0  0  0
    3.4774    0.4883    0.0000 O   0  0  0  0  0  0  0  0  0  0  0  0
    8.2694   -2.2227    0.0000 O   0  0  0  0  0  0  0  0  0  0  0  0
    4.5186    2.2209    0.0000 O   0  0  0  0  0  0  0  0  0  0  0  0
    9.1732    2.5881    0.0000 O   0  0  0  0  0  0  0  0  0  0  0  0
    5.2560   -1.6837    0.0000 O   0  0  0  0  0  0  0  0  0  0  0  0
    7.4413    2.6400    0.0000 O   0  0  0  0  0  0  0  0  0  0  0  0
    5.3728   -2.7948    0.0000 O   0  0  0  0  0  0  0  0  0  0  0  0
    7.3072    1.0881    0.0000 O   0  0  0  0  0  0  0  0  0  0  0  0
    3.3168   -2.3705    0.0000 O   0  0  0  0  0  0  0  0  0  0  0  0
   10.9053    0.5881    0.0000 O   0  0  0  0  0  0  0  0  0  0  0  0
    4.4733    0.8273    0.0000 O   0  0  0  0  0  0  0  0  0  0  0  0
    7.9185   -4.3719    0.0000 O   0  0  0  0  0  0  0  0  0  0  0  0
   10.4447   -2.1232    0.0000 O   0  0  0  0  0  0  0  0  0  0  0  0
    4.9820    4.3486    0.0000 O   0  0  0  0  0  0  0  0  0  0  0  0
    2.3411    2.2358    0.0000 O   0  0  0  0  0  0  0  0  0  0  0  0
    9.7633   -3.9010    0.0000 O   0  0  0  0  0  0  0  0  0  0  0  0
    3.1150    3.9754    0.0000 O   0  0  0  0  0  0  0  0  0  0  0  0
   10.9053    3.5881    0.0000 O   0  0  0  0  0  0  0  0  0  0  0  0
    6.9426   -0.6998    0.0000 O   0  0  0  0  0  0  0  0  0  0  0  0
    9.1732    0.5881    0.0000 C   0  0  2  0  0  0  0  0  0  0  0  0
    3.4684   -0.5385    0.0000 C   0  0  2  0  0  0  0  0  0  0  0  0
    8.3072    1.0881    0.0000 C   0  0  2  0  0  0  0  0  0  0  0  0
    3.8168   -1.5045    0.0000 C   0  0  2  0  0  0  0  0  0  0  0  0
   10.0392    1.0881    0.0000 C   0  0  1  0  0  0  0  0  0  0  0  0
    4.3812   -0.1685    0.0000 C   0  0  1  0  0  0  0  0  0  0  0  0
    7.3940   -2.7593    0.0000 C   0  0  1  0  0  0  0  0  0  0  0  0
    5.4211    2.7108    0.0000 C   0  0  1  0  0  0  0  0  0  0  0  0
    8.9039   -1.4153    0.0000 C   0  0  1  0  0  0  0  0  0  0  0  0
    3.8426    1.4480    0.0000 C   0  0  1  0  0  0  0  0  0  0  0  0
    8.1441   -3.3976    0.0000 C   0  0  2  0  0  0  0  0  0  0  0  0
    9.4510   -2.2344    0.0000 C   0  0  1  0  0  0  0  0  0  0  0  0
    4.7055    3.3876    0.0000 C   0  0  2  0  0  0  0  0  0  0  0  0
    3.3393    2.2946    0.0000 C   0  0  1  0  0  0  0  0  0  0  0  0
    8.3072    2.0881    0.0000 C   0  0  2  0  0  0  0  0  0  0  0  0
    4.4791   -2.2891    0.0000 C   0  0  2  0  0  0  0  0  0  0  0  0
    9.0984   -3.1541    0.0000 C   0  0  1  0  0  0  0  0  0  0  0  0
    3.7397    3.1945    0.0000 C   0  0  1  0  0  0  0  0  0  0  0  0
   10.0392    2.0881    0.0000 C   0  0  1  0  0  0  0  0  0  0  0  0
    5.2105   -0.6998    0.0000 C   0  0  1  0  0  0  0  0  0  0  0  0
    6.3866   -2.9583    0.0000 C   0  0  0  0  0  0  0  0  0  0  0  0
    6.4375    2.8565    0.0000 C   0  0  0  0  0  0  0  0  0  0  0  0
   10.9053    2.5881    0.0000 C   0  0  0  0  0  0  0  0  0  0  0  0
    6.0766   -0.1998    0.0000 C   0  0  0  0  0  0  0  0  0  0  0  0
    9.9093    0.1631    0.0000 H   0  0  0  0  0  0  0  0  0  0  0  0
    2.6304   -0.6812    0.0000 H   0  0  0  0  0  0  0  0  0  0  0  0
    7.9972    0.5512    0.0000 H   0  0  0  0  0  0  0  0  0  0  0  0
    3.1968   -1.5045    0.0000 H   0  0  0  0  0  0  0  0  0  0  0  0
   10.5762    1.3981    0.0000 H   0  0  0  0  0  0  0  0  0  0  0  0
    3.8835    0.2013    0.0000 H   0  0  0  0  0  0  0  0  0  0  0  0
    7.1795   -3.5818    0.0000 H   0  0  0  0  0  0  0  0  0  0  0  0
    5.6784    3.5209    0.0000 H   0  0  0  0  0  0  0  0  0  0  0  0
    8.1533   -1.0164    0.0000 H   0  0  0  0  0  0  0  0  0  0  0  0
    2.9958    1.3747    0.0000 H   0  0  0  0  0  0  0  0  0  0  0  0
    8.5874   -3.8311    0.0000 H   0  0  0  0  0  0  0  0  0  0  0  0
    9.7124   -1.6722    0.0000 H   0  0  0  0  0  0  0  0  0  0  0  0
    5.3036    3.5509    0.0000 H   0  0  0  0  0  0  0  0  0  0  0  0
    2.9864    2.8044    0.0000 H   0  0  0  0  0  0  0  0  0  0  0  0
    8.3072    2.9381    0.0000 H   0  0  0  0  0  0  0  0  0  0  0  0
    3.9365   -2.9435    0.0000 H   0  0  0  0  0  0  0  0  0  0  0  0
    8.9171   -3.7470    0.0000 H   0  0  0  0  0  0  0  0  0  0  0  0
    3.9519    3.7771    0.0000 H   0  0  0  0  0  0  0  0  0  0  0  0
   10.0392    2.7081    0.0000 H   0  0  0  0  0  0  0  0  0  0  0  0
    5.7545   -0.9973    0.0000 H   0  0  0  0  0  0  0  0  0  0  0  0
    6.7966    3.3619    0.0000 H   0  0  0  0  0  0  0  0  0  0  0  0
    6.4158    2.2369    0.0000 H   0  0  0  0  0  0  0  0  0  0  0  0
    6.0545   -3.4818    0.0000 H   0  0  0  0  0  0  0  0  0  0  0  0
    6.3757   -2.3384    0.0000 H   0  0  0  0  0  0  0  0  0  0  0  0
   11.1173    2.0055    0.0000 H   0  0  0  0  0  0  0  0  0  0  0  0
   11.5159    2.6958    0.0000 H   0  0  0  0  0  0  0  0  0  0  0  0
    6.4751    0.2752    0.0000 H   0  0  0  0  0  0  0  0  0  0  0  0
    5.6780    0.2752    0.0000 H   0  0  0  0  0  0  0  0  0  0  0  0
    6.9972    0.5512    0.0000 H   0  0  0  0  0  0  0  0  0  0  0  0
    2.6968   -2.3705    0.0000 H   0  0  0  0  0  0  0  0  0  0  0  0
   11.4422    0.8981    0.0000 H   0  0  0  0  0  0  0  0  0  0  0  0
    5.0365    1.0865    0.0000 H   0  0  0  0  0  0  0  0  0  0  0  0
    8.3716   -4.7950    0.0000 H   0  0  0  0  0  0  0  0  0  0  0  0
   10.8125   -2.6223    0.0000 H   0  0  0  0  0  0  0  0  0  0  0  0
    4.5517    4.7950    0.0000 H   0  0  0  0  0  0  0  0  0  0  0  0
    2.0000    2.7535    0.0000 H   0  0  0  0  0  0  0  0  0  0  0  0
    9.5684   -4.4896    0.0000 H   0  0  0  0  0  0  0  0  0  0  0  0
    3.3406    4.5529    0.0000 H   0  0  0  0  0  0  0  0  0  0  0  0
   11.4422    3.8981    0.0000 H   0  0  0  0  0  0  0  0  0  0  0  0
    6.9426   -1.3198    0.0000 H   0  0  0  0  0  0  0  0  0  0  0  0
  1 21  1  0  0  0  0
  1 29  1  0  0  0  0
  2 22  1  0  0  0  0
  2 30  1  0  0  0  0
  3 27  1  0  0  0  0
  3 29  1  0  0  0  0
  4 28  1  0  0  0  0
  4 30  1  0  0  0  0
  5 35  1  0  0  0  0
  5 39  1  0  0  0  0
  6 36  1  0  0  0  0
  6 40  1  0  0  0  0
  7 35  1  0  0  0  0
  7 42  1  0  0  0  0
  8 36  1  0  0  0  0
  8 41  1  0  0  0  0
 23  9  1  1  0  0  0
  9 73  1  0  0  0  0
 24 10  1  6  0  0  0
 10 74  1  0  0  0  0
 25 11  1  1  0  0  0
 11 75  1  0  0  0  0
 26 12  1  6  0  0  0
 12 76  1  0  0  0  0
 31 13  1  6  0  0  0
 13 77  1  0  0  0  0
 32 14  1  6  0  0  0
 14 78  1  0  0  0  0
 33 15  1  6  0  0  0
 15 79  1  0  0  0  0
 34 16  1  6  0  0  0
 16 80  1  0  0  0  0
 37 17  1  1  0  0  0
 17 81  1  0  0  0  0
 38 18  1  1  0  0  0
 18 82  1  0  0  0  0
 19 43  1  0  0  0  0
 19 83  1  0  0  0  0
 20 44  1  0  0  0  0
 20 84  1  0  0  0  0
 21 23  1  0  0  0  0
 21 25  1  0  0  0  0
 21 45  1  1  0  0  0
 22 24  1  0  0  0  0
 22 26  1  0  0  0  0
 22 46  1  6  0  0  0
 23 35  1  0  0  0  0
 23 47  1  0  0  0  0
 24 36  1  0  0  0  0
 24 48  1  0  0  0  0
 25 39  1  0  0  0  0
 25 49  1  0  0  0  0
 26 40  1  0  0  0  0
 26 50  1  0  0  0  0
 27 31  1  0  0  0  0
 27 41  1  0  0  0  0
 27 51  1  6  0  0  0
 28 33  1  0  0  0  0
 28 42  1  0  0  0  0
 28 52  1  6  0  0  0
 29 32  1  0  0  0  0
 29 53  1  1  0  0  0
 30 34  1  0  0  0  0
 30 54  1  1  0  0  0
 31 37  1  0  0  0  0
 31 55  1  0  0  0  0
 32 37  1  0  0  0  0
 32 56  1  0  0  0  0
 33 38  1  0  0  0  0
 33 57  1  0  0  0  0
 34 38  1  0  0  0  0
 34 58  1  0  0  0  0
 35 59  1  6  0  0  0
 36 60  1  1  0  0  0
 37 61  1  0  0  0  0
 38 62  1  0  0  0  0
 39 43  1  6  0  0  0
 39 63  1  0  0  0  0
 40 44  1  1  0  0  0
 40 64  1  0  0  0  0
 41 67  1  0  0  0  0
 41 68  1  0  0  0  0
 42 65  1  0  0  0  0
 42 66  1  0  0  0  0
 43 69  1  0  0  0  0
 43 70  1  0  0  0  0
 44 71  1  0  0  0  0
 44 72  1  0  0  0  0
M  END
> <PUBCHEM_COMPOUND_CID>
11686063

> <PUBCHEM_COMPOUND_CANONICALIZED>
1

> <PUBCHEM_CACTVS_COMPLEXITY>
860

> <PUBCHEM_CACTVS_HBOND_ACCEPTOR>
20

> <PUBCHEM_CACTVS_HBOND_DONOR>
12

> <PUBCHEM_CACTVS_ROTATABLE_BOND>
2

> <PUBCHEM_CACTVS_SUBSKEYS>
AAADcfB4PgAAAAAAAAAAAAAAAAAAAAAAAAAkSJEgAAAAAAAAAAAAGgAACAAACBSwgAMACAAABgAAAAAAAAAAAAAAAAAAAAAAAAAREAIAAAAiQAAFAAAHAAHAYAwAAAAAAAAAAAAAAAAAAAAAAAAAAAAAAA==

> <PUBCHEM_IUPAC_OPENEYE_NAME>
(1R,3S,4R,5R,7S,10R,11S,12S,13R,14R,16S,17R,18R,20S,23R,24S,25S,26R,28R,30R)-5,18-bis(hydroxymethyl)-2,6,8,15,19,21,27,29-octaoxapentacyclo[21.3.1.13,7.110,14.116,20]triacontane-4,11,12,13,17,24,25,26,28,30-decol

> <PUBCHEM_IUPAC_CAS_NAME>
(1R,3S,4R,5R,7S,10R,11S,12S,13R,14R,16S,17R,18R,20S,23R,24S,25S,26R,28R,30R)-5,18-bis(hydroxymethyl)-2,6,8,15,19,21,27,29-octaoxapentacyclo[21.3.1.13,7.110,14.116,20]triacontane-4,11,12,13,17,24,25,26,28,30-decol

> <PUBCHEM_IUPAC_NAME_MARKUP>
(1<I>R</I>,3<I>S</I>,4<I>R</I>,5<I>R</I>,7<I>S</I>,10<I>R</I>,11<I>S</I>,12<I>S</I>,13<I>R</I>,14<I>R</I>,16<I>S</I>,17<I>R</I>,18<I>R</I>,20<I>S</I>,23<I>R</I>,24<I>S</I>,25<I>S</I>,26<I>R</I>,28<I>R</I>,30<I>R</I>)-5,18-bis(hydroxymethyl)-2,6,8,15,19,21,27,29-octaoxapentacyclo[21.3.1.1<SUP>3,7</SUP>.1<SUP>10,14</SUP>.1<SUP>16,20</SUP>]triacontane-4,11,12,13,17,24,25,26,28,30-decol

> <PUBCHEM_IUPAC_NAME>
(1R,3S,4R,5R,7S,10R,11S,12S,13R,14R,16S,17R,18R,20S,23R,24S,25S,26R,28R,30R)-5,18-bis(hydroxymethyl)-2,6,8,15,19,21,27,29-octaoxapentacyclo[21.3.1.13,7.110,14.116,20]triacontane-4,11,12,13,17,24,25,26,28,30-decol

> <PUBCHEM_IUPAC_SYSTEMATIC_NAME>
(1R,3S,4R,5R,7S,10R,11S,12S,13R,14R,16S,17R,18R,20S,23R,24S,25S,26R,28R,30R)-5,18-bis(hydroxymethyl)-2,6,8,15,19,21,27,29-octaoxapentacyclo[21.3.1.13,7.110,14.116,20]triacontane-4,11,12,13,17,24,25,26,28,30-decol

> <PUBCHEM_IUPAC_TRADITIONAL_NAME>
(1R,3S,4R,5R,7S,10R,11S,12S,13R,14R,16S,17R,18R,20S,23R,24S,25S,26R,28R,30R)-5,18-dimethylol-2,6,8,15,19,21,27,29-octaoxapentacyclo[21.3.1.13,7.110,14.116,20]triacontane-4,11,12,13,17,24,25,26,28,30-decol

> <PUBCHEM_IUPAC_INCHI>
InChI=1S/C24H40O20/c25-1-5-11(29)19-17(35)21(39-5)37-3-7-9(27)14(32)16(34)24(42-7)44-20-12(30)6(2-26)40-22(18(20)36)38-4-8-10(28)13(31)15(33)23(41-8)43-19/h5-36H,1-4H2/t5-,6-,7-,8-,9-,10-,11-,12-,13+,14+,15-,16-,17-,18-,19+,20+,21+,22+,23-,24-/m1/s1

> <PUBCHEM_IUPAC_INCHIKEY>
NIFXVRWMHZPIFE-KCLHJWPFSA-N

> <PUBCHEM_XLOGP3_AA>
-7.5

> <PUBCHEM_EXACT_MASS>
648.21129366

> <PUBCHEM_MOLECULAR_FORMULA>
C24H40O20

> <PUBCHEM_MOLECULAR_WEIGHT>
648.6

> <PUBCHEM_OPENEYE_CAN_SMILES>
C1C2C(C(C(C(O2)OC3C(C(OC(C3O)OCC4C(C(C(C(O4)OC5C(C(OC(C5O)O1)CO)O)O)O)O)CO)O)O)O)O

> <PUBCHEM_OPENEYE_ISO_SMILES>
C1[C@@H]2[C@H]([C@@H]([C@H]([C@H](O2)O[C@H]3[C@@H]([C@H](O[C@@H]([C@@H]3O)OC[C@@H]4[C@H]([C@@H]([C@H]([C@H](O4)O[C@H]5[C@@H]([C@H](O[C@@H]([C@@H]5O)O1)CO)O)O)O)O)CO)O)O)O)O

> <PUBCHEM_CACTVS_TPSA>
317

> <PUBCHEM_MONOISOTOPIC_WEIGHT>
648.21129366

> <PUBCHEM_TOTAL_CHARGE>
0

> <PUBCHEM_HEAVY_ATOM_COUNT>
44

> <PUBCHEM_ATOM_DEF_STEREO_COUNT>
20

> <PUBCHEM_ATOM_UDEF_STEREO_COUNT>
0

> <PUBCHEM_BOND_DEF_STEREO_COUNT>
0

> <PUBCHEM_BOND_UDEF_STEREO_COUNT>
0

> <PUBCHEM_ISOTOPIC_ATOM_COUNT>
0

> <PUBCHEM_COMPONENT_COUNT>
1

> <PUBCHEM_CACTVS_TAUTO_COUNT>
1

> <PUBCHEM_COORDINATE_TYPE>
1
5
255

> <PUBCHEM_BONDANNOTATIONS>
24  10  6
25  11  5
26  12  6
31  13  6
32  14  6
33  15  6
34  16  6
37  17  5
38  18  5
21  45  5
22  46  6
27  51  6
28  52  6
29  53  5
30  54  5
35  59  6
36  60  5
39  43  6
40  44  5
23  9  5

$$$$
