11725801
  -OEChem-10012202132D

 46 51  0     1  0  0  0  0  0999 V2000
    6.3118   -0.9452    0.0000 O   0  0  0  0  0  0  0  0  0  0  0  0
    6.4612   -1.6475    0.0000 O   0  0  0  0  0  0  0  0  0  0  0  0
    6.1684   -3.2436    0.0000 O   0  0  0  0  0  0  0  0  0  0  0  0
    2.7937   -2.9903    0.0000 O   0  0  0  0  0  0  0  0  0  0  0  0
    6.5456    3.1363    0.0000 O   0  0  0  0  0  0  0  0  0  0  0  0
    7.9975    2.2981    0.0000 O   0  0  0  0  0  0  0  0  0  0  0  0
    4.5797   -0.9452    0.0000 C   0  0  2  0  0  0  0  0  0  0  0  0
    4.5797    0.0548    0.0000 C   0  0  1  0  0  0  0  0  0  0  0  0
    3.6697   -1.4521    0.0000 C   0  0  1  0  0  0  0  0  0  0  0  0
    3.7215    0.5517    0.0000 C   0  0  2  0  0  0  0  0  0  0  0  0
    5.4457   -1.4452    0.0000 C   0  0  2  0  0  0  0  0  0  0  0  0
    2.8560    0.0675    0.0000 C   0  0  1  0  0  0  0  0  0  0  0  0
    2.8304   -0.9239    0.0000 C   0  0  0  0  0  0  0  0  0  0  0  0
    5.4457    0.5548    0.0000 C   0  0  0  0  0  0  0  0  0  0  0  0
    5.4618   -2.4867    0.0000 C   0  0  0  0  0  0  0  0  0  0  0  0
    3.6617   -2.4937    0.0000 C   0  0  0  0  0  0  0  0  0  0  0  0
    3.7289    1.5517    0.0000 C   0  0  0  0  0  0  0  0  0  0  0  0
    6.3118    0.0548    0.0000 C   0  0  0  0  0  0  0  0  0  0  0  0
    2.0000    0.5845    0.0000 C   0  0  0  0  0  0  0  0  0  0  0  0
    4.5638   -3.0145    0.0000 C   0  0  0  0  0  0  0  0  0  0  0  0
    5.4297    1.5963    0.0000 C   0  0  0  0  0  0  0  0  0  0  0  0
    6.8459   -2.7414    0.0000 C   0  0  0  0  0  0  0  0  0  0  0  0
    7.2218    0.5616    0.0000 C   0  0  0  0  0  0  0  0  0  0  0  0
    6.3277    2.1240    0.0000 C   0  0  0  0  0  0  0  0  0  0  0  0
    7.2298    1.6032    0.0000 C   0  0  0  0  0  0  0  0  0  0  0  0
    7.5755    3.2436    0.0000 C   0  0  0  0  0  0  0  0  0  0  0  0
    4.5797   -1.7952    0.0000 H   0  0  0  0  0  0  0  0  0  0  0  0
    5.3158   -0.3702    0.0000 H   0  0  0  0  0  0  0  0  0  0  0  0
    2.9240   -1.8601    0.0000 H   0  0  0  0  0  0  0  0  0  0  0  0
    4.2598    0.8594    0.0000 H   0  0  0  0  0  0  0  0  0  0  0  0
    2.8663    0.6874    0.0000 H   0  0  0  0  0  0  0  0  0  0  0  0
    2.2233   -0.7980    0.0000 H   0  0  0  0  0  0  0  0  0  0  0  0
    2.5986   -1.4989    0.0000 H   0  0  0  0  0  0  0  0  0  0  0  0
    4.3489    1.5471    0.0000 H   0  0  0  0  0  0  0  0  0  0  0  0
    3.7335    2.1716    0.0000 H   0  0  0  0  0  0  0  0  0  0  0  0
    3.1089    1.5562    0.0000 H   0  0  0  0  0  0  0  0  0  0  0  0
    2.3205    1.1152    0.0000 H   0  0  0  0  0  0  0  0  0  0  0  0
    1.4693    0.9050    0.0000 H   0  0  0  0  0  0  0  0  0  0  0  0
    1.6795    0.0537    0.0000 H   0  0  0  0  0  0  0  0  0  0  0  0
    4.5662   -3.6345    0.0000 H   0  0  0  0  0  0  0  0  0  0  0  0
    4.8892    1.9000    0.0000 H   0  0  0  0  0  0  0  0  0  0  0  0
    7.1636   -3.2738    0.0000 H   0  0  0  0  0  0  0  0  0  0  0  0
    7.4074   -2.4784    0.0000 H   0  0  0  0  0  0  0  0  0  0  0  0
    7.7551    0.2454    0.0000 H   0  0  0  0  0  0  0  0  0  0  0  0
    8.1651    3.4354    0.0000 H   0  0  0  0  0  0  0  0  0  0  0  0
    7.4468    3.8501    0.0000 H   0  0  0  0  0  0  0  0  0  0  0  0
  1 11  1  0  0  0  0
  1 18  1  0  0  0  0
 11  2  1  6  0  0  0
  2 22  1  0  0  0  0
  3 15  1  0  0  0  0
  3 22  1  0  0  0  0
  4 16  2  0  0  0  0
  5 24  1  0  0  0  0
  5 26  1  0  0  0  0
  6 25  1  0  0  0  0
  6 26  1  0  0  0  0
  7  8  1  0  0  0  0
  7  9  1  0  0  0  0
  7 11  1  0  0  0  0
  7 27  1  6  0  0  0
  8 10  1  0  0  0  0
  8 14  1  0  0  0  0
  8 28  1  6  0  0  0
  9 13  1  0  0  0  0
  9 16  1  0  0  0  0
  9 29  1  1  0  0  0
 10 12  1  0  0  0  0
 10 17  1  6  0  0  0
 10 30  1  0  0  0  0
 11 15  1  0  0  0  0
 12 13  1  0  0  0  0
 12 19  1  1  0  0  0
 12 31  1  0  0  0  0
 13 32  1  0  0  0  0
 13 33  1  0  0  0  0
 14 18  1  0  0  0  0
 14 21  2  0  0  0  0
 15 20  2  0  0  0  0
 16 20  1  0  0  0  0
 17 34  1  0  0  0  0
 17 35  1  0  0  0  0
 17 36  1  0  0  0  0
 18 23  2  0  0  0  0
 19 37  1  0  0  0  0
 19 38  1  0  0  0  0
 19 39  1  0  0  0  0
 20 40  1  0  0  0  0
 21 24  1  0  0  0  0
 21 41  1  0  0  0  0
 22 42  1  0  0  0  0
 22 43  1  0  0  0  0
 23 25  1  0  0  0  0
 23 44  1  0  0  0  0
 24 25  2  0  0  0  0
 26 45  1  0  0  0  0
 26 46  1  0  0  0  0
M  END
> <PUBCHEM_COMPOUND_CID>
11725801

> <PUBCHEM_COMPOUND_CANONICALIZED>
1

> <PUBCHEM_CACTVS_COMPLEXITY>
675

> <PUBCHEM_CACTVS_HBOND_ACCEPTOR>
6

> <PUBCHEM_CACTVS_HBOND_DONOR>
0

> <PUBCHEM_CACTVS_ROTATABLE_BOND>
0

> <PUBCHEM_CACTVS_SUBSKEYS>
AAADceB4OAAAAAAAAAAAAAAAAAAAASJAAAA0YIEAAAAAAEiRAAAAGgAAAAAADQSAmAMyDoAABACIAqBSAAACCAAgIAAAiAEGiMgdJzKEMRqiOCKlwBUOqQfK7PyOoQABCAAIQADCAAYQADCAAAAAAAAAAA==

> <PUBCHEM_IUPAC_OPENEYE_NAME>
(1S,12R,13S,14R,16R,23R)-13,14-dimethyl-2,6,8,20,22-pentaoxahexacyclo[10.10.1.01,19.03,11.05,9.016,23]tricosa-3,5(9),10,18-tetraen-17-one

> <PUBCHEM_IUPAC_CAS_NAME>
(1S,12R,13S,14R,16R,23R)-13,14-dimethyl-2,6,8,20,22-pentaoxahexacyclo[10.10.1.01,19.03,11.05,9.016,23]tricosa-3,5(9),10,18-tetraen-17-one

> <PUBCHEM_IUPAC_NAME_MARKUP>
(1<I>S</I>,12<I>R</I>,13<I>S</I>,14<I>R</I>,16<I>R</I>,23<I>R</I>)-13,14-dimethyl-2,6,8,20,22-pentaoxahexacyclo[10.10.1.0<SUP>1,19</SUP>.0<SUP>3,11</SUP>.0<SUP>5,9</SUP>.0<SUP>16,23</SUP>]tricosa-3,5(9),10,18-tetraen-17-one

> <PUBCHEM_IUPAC_NAME>
(1S,12R,13S,14R,16R,23R)-13,14-dimethyl-2,6,8,20,22-pentaoxahexacyclo[10.10.1.01,19.03,11.05,9.016,23]tricosa-3,5(9),10,18-tetraen-17-one

> <PUBCHEM_IUPAC_SYSTEMATIC_NAME>
(1S,12R,13S,14R,16R,23R)-13,14-dimethyl-2,6,8,20,22-pentaoxahexacyclo[10.10.1.01,19.03,11.05,9.016,23]tricosa-3,5(9),10,18-tetraen-17-one

> <PUBCHEM_IUPAC_TRADITIONAL_NAME>
(1S,12R,13S,14R,16R,23R)-13,14-dimethyl-2,6,8,20,22-pentaoxahexacyclo[10.10.1.01,19.03,11.05,9.016,23]tricosa-3,5(9),10,18-tetraen-17-one

> <PUBCHEM_IUPAC_INCHI>
InChI=1S/C20H20O6/c1-9-3-11-13(21)5-17-20(25-8-24-17)19(11)18(10(9)2)12-4-15-16(23-7-22-15)6-14(12)26-20/h4-6,9-11,18-19H,3,7-8H2,1-2H3/t9-,10+,11+,18+,19+,20+/m1/s1

> <PUBCHEM_IUPAC_INCHIKEY>
GMTJIWUFFXGFHH-WPAOEJHSSA-N

> <PUBCHEM_XLOGP3_AA>
2.8

> <PUBCHEM_EXACT_MASS>
356.12598835

> <PUBCHEM_MOLECULAR_FORMULA>
C20H20O6

> <PUBCHEM_MOLECULAR_WEIGHT>
356.4

> <PUBCHEM_OPENEYE_CAN_SMILES>
CC1CC2C3C(C1C)C4=CC5=C(C=C4OC36C(=CC2=O)OCO6)OCO5

> <PUBCHEM_OPENEYE_ISO_SMILES>
C[C@@H]1C[C@@H]2[C@H]3[C@@H]([C@H]1C)C4=CC5=C(C=C4O[C@@]36C(=CC2=O)OCO6)OCO5

> <PUBCHEM_CACTVS_TPSA>
63.2

> <PUBCHEM_MONOISOTOPIC_WEIGHT>
356.12598835

> <PUBCHEM_TOTAL_CHARGE>
0

> <PUBCHEM_HEAVY_ATOM_COUNT>
26

> <PUBCHEM_ATOM_DEF_STEREO_COUNT>
6

> <PUBCHEM_ATOM_UDEF_STEREO_COUNT>
0

> <PUBCHEM_BOND_DEF_STEREO_COUNT>
0

> <PUBCHEM_BOND_UDEF_STEREO_COUNT>
0

> <PUBCHEM_ISOTOPIC_ATOM_COUNT>
0

> <PUBCHEM_COMPONENT_COUNT>
1

> <PUBCHEM_CACTVS_TAUTO_COUNT>
2

> <PUBCHEM_COORDINATE_TYPE>
1
5
255

> <PUBCHEM_BONDANNOTATIONS>
10  17  6
12  19  5
14  18  8
14  21  8
18  23  8
11  2  6
21  24  8
23  25  8
24  25  8
7  27  6
8  28  6
9  29  5

$$$$
