11966311
  -OEChem-10012202042D

 81 86  0     1  0  0  0  0  0999 V2000
    8.8051   -1.9904    0.0000 O   0  0  0  0  0  0  0  0  0  0  0  0
    7.6566   -5.1693    0.0000 O   0  0  0  0  0  0  0  0  0  0  0  0
   10.5846   -1.8972    0.0000 O   0  0  0  0  0  0  0  0  0  0  0  0
    6.6385   -1.2124    0.0000 O   0  0  0  0  0  0  0  0  0  0  0  0
   12.3167    1.1028    0.0000 O   0  0  0  0  0  0  0  0  0  0  0  0
   11.9201    5.1693    0.0000 O   0  0  0  0  0  0  0  0  0  0  0  0
   14.0865    2.5749    0.0000 O   0  0  0  0  0  0  0  0  0  0  0  0
   10.5846    1.1028    0.0000 O   0  0  0  0  0  0  0  0  0  0  0  0
   10.3572   -4.0608    0.0000 O   0  0  0  0  0  0  0  0  0  0  0  0
    5.0109   -1.8048    0.0000 O   0  0  0  0  0  0  0  0  0  0  0  0
   12.3167   -0.8972    0.0000 O   0  0  0  0  0  0  0  0  0  0  0  0
    8.8526   -0.8972    0.0000 O   0  0  0  0  0  0  0  0  0  0  0  0
   14.8369    5.0513    0.0000 O   0  0  0  0  0  0  0  0  0  0  0  0
   15.7906    3.0959    0.0000 O   0  0  0  0  0  0  0  0  0  0  0  0
    5.9545    0.6670    0.0000 O   0  0  0  0  0  0  0  0  0  0  0  0
    3.9849    1.0143    0.0000 O   0  0  0  0  0  0  0  0  0  0  0  0
    2.6993   -0.5178    0.0000 O   0  0  0  0  0  0  0  0  0  0  0  0
    8.8526    2.1028    0.0000 O   0  0  0  0  0  0  0  0  0  0  0  0
    2.3985   -2.2236    0.0000 O   0  0  0  0  0  0  0  0  0  0  0  0
    8.1661   -3.7706    0.0000 C   0  0  2  0  0  0  0  0  0  0  0  0
    6.9806   -2.1521    0.0000 C   0  0  1  0  0  0  0  0  0  0  0  0
    7.2598   -3.3480    0.0000 C   0  0  2  0  0  0  0  0  0  0  0  0
    9.6141   -3.3917    0.0000 C   0  0  1  0  0  0  0  0  0  0  0  0
    9.7186   -2.3972    0.0000 C   0  0  1  0  0  0  0  0  0  0  0  0
   12.3167    2.1028    0.0000 C   0  0  1  0  0  0  0  0  0  0  0  0
   12.8772    4.0292    0.0000 C   0  0  2  0  0  0  0  0  0  0  0  0
   10.5846   -0.8972    0.0000 C   0  0  2  0  0  0  0  0  0  0  0  0
    6.7503   -4.7467    0.0000 C   0  0  0  0  0  0  0  0  0  0  0  0
   12.1701    3.3221    0.0000 C   0  0  2  0  0  0  0  0  0  0  0  0
   11.4507   -0.3972    0.0000 C   0  0  2  0  0  0  0  0  0  0  0  0
   11.4507    0.6028    0.0000 C   0  0  2  0  0  0  0  0  0  0  0  0
    9.7186   -0.3972    0.0000 C   0  0  2  0  0  0  0  0  0  0  0  0
   14.3674    4.1684    0.0000 C   0  0  1  0  0  0  0  0  0  0  0  0
   11.2130    4.4622    0.0000 C   0  0  0  0  0  0  0  0  0  0  0  0
    9.7186    0.6028    0.0000 C   0  0  1  0  0  0  0  0  0  0  0  0
    5.6537   -1.0388    0.0000 C   0  0  2  0  0  0  0  0  0  0  0  0
   14.8058    3.2696    0.0000 C   0  0  1  0  0  0  0  0  0  0  0  0
    5.3117   -0.0991    0.0000 C   0  0  1  0  0  0  0  0  0  0  0  0
    4.3269    0.0746    0.0000 C   0  0  2  0  0  0  0  0  0  0  0  0
    3.6841   -0.6915    0.0000 C   0  0  2  0  0  0  0  0  0  0  0  0
    4.0261   -1.6312    0.0000 C   0  0  1  0  0  0  0  0  0  0  0  0
    8.8526    1.1028    0.0000 C   0  0  0  0  0  0  0  0  0  0  0  0
    3.3833   -2.3972    0.0000 C   0  0  0  0  0  0  0  0  0  0  0  0
    8.9365   -4.1298    0.0000 H   0  0  0  0  0  0  0  0  0  0  0  0
    6.3863   -2.3289    0.0000 H   0  0  0  0  0  0  0  0  0  0  0  0
    6.4894   -2.9888    0.0000 H   0  0  0  0  0  0  0  0  0  0  0  0
   10.1929   -3.1695    0.0000 H   0  0  0  0  0  0  0  0  0  0  0  0
    9.6862   -1.7780    0.0000 H   0  0  0  0  0  0  0  0  0  0  0  0
   11.6978    2.0658    0.0000 H   0  0  0  0  0  0  0  0  0  0  0  0
   13.4782    4.6302    0.0000 H   0  0  0  0  0  0  0  0  0  0  0  0
   10.0477   -1.2072    0.0000 H   0  0  0  0  0  0  0  0  0  0  0  0
    6.1742   -4.5177    0.0000 H   0  0  0  0  0  0  0  0  0  0  0  0
    6.5047   -5.3160    0.0000 H   0  0  0  0  0  0  0  0  0  0  0  0
   11.5690    2.7211    0.0000 H   0  0  0  0  0  0  0  0  0  0  0  0
   11.4507   -1.0172    0.0000 H   0  0  0  0  0  0  0  0  0  0  0  0
   11.4507    1.2228    0.0000 H   0  0  0  0  0  0  0  0  0  0  0  0
    9.1817   -0.0872    0.0000 H   0  0  0  0  0  0  0  0  0  0  0  0
   14.9874    4.1576    0.0000 H   0  0  0  0  0  0  0  0  0  0  0  0
   10.7875    4.9132    0.0000 H   0  0  0  0  0  0  0  0  0  0  0  0
   10.7499    4.0500    0.0000 H   0  0  0  0  0  0  0  0  0  0  0  0
    9.7186    1.2228    0.0000 H   0  0  0  0  0  0  0  0  0  0  0  0
    5.8658   -1.6214    0.0000 H   0  0  0  0  0  0  0  0  0  0  0  0
   15.1789    3.7647    0.0000 H   0  0  0  0  0  0  0  0  0  0  0  0
    5.9223   -0.2067    0.0000 H   0  0  0  0  0  0  0  0  0  0  0  0
    3.7163    0.1822    0.0000 H   0  0  0  0  0  0  0  0  0  0  0  0
   10.2283   -4.6673    0.0000 H   0  0  0  0  0  0  0  0  0  0  0  0
    3.2856   -1.1664    0.0000 H   0  0  0  0  0  0  0  0  0  0  0  0
    4.2382   -2.2138    0.0000 H   0  0  0  0  0  0  0  0  0  0  0  0
    8.2420    1.2105    0.0000 H   0  0  0  0  0  0  0  0  0  0  0  0
    8.6405    0.5202    0.0000 H   0  0  0  0  0  0  0  0  0  0  0  0
   12.8536   -0.5872    0.0000 H   0  0  0  0  0  0  0  0  0  0  0  0
    8.3157   -0.5872    0.0000 H   0  0  0  0  0  0  0  0  0  0  0  0
   15.4565    5.0730    0.0000 H   0  0  0  0  0  0  0  0  0  0  0  0
    3.1713   -2.9798    0.0000 H   0  0  0  0  0  0  0  0  0  0  0  0
    3.9203   -2.7072    0.0000 H   0  0  0  0  0  0  0  0  0  0  0  0
   16.0027    2.5133    0.0000 H   0  0  0  0  0  0  0  0  0  0  0  0
    5.7424    1.2496    0.0000 H   0  0  0  0  0  0  0  0  0  0  0  0
    3.3743    1.1219    0.0000 H   0  0  0  0  0  0  0  0  0  0  0  0
    2.4872    0.0648    0.0000 H   0  0  0  0  0  0  0  0  0  0  0  0
    8.3157    2.4128    0.0000 H   0  0  0  0  0  0  0  0  0  0  0  0
    2.0000   -2.6985    0.0000 H   0  0  0  0  0  0  0  0  0  0  0  0
  1 22  1  0  0  0  0
  1 24  1  0  0  0  0
  2 20  1  0  0  0  0
  2 28  1  0  0  0  0
 24  3  1  1  0  0  0
 27  3  1  1  0  0  0
 21  4  1  1  0  0  0
 36  4  1  6  0  0  0
 25  5  1  6  0  0  0
 31  5  1  1  0  0  0
  6 26  1  0  0  0  0
  6 34  1  0  0  0  0
  7 29  1  0  0  0  0
  7 37  1  0  0  0  0
  8 31  1  0  0  0  0
  8 35  1  0  0  0  0
 23  9  1  1  0  0  0
  9 66  1  0  0  0  0
 10 36  1  0  0  0  0
 10 41  1  0  0  0  0
 30 11  1  6  0  0  0
 11 71  1  0  0  0  0
 32 12  1  1  0  0  0
 12 72  1  0  0  0  0
 33 13  1  6  0  0  0
 13 73  1  0  0  0  0
 37 14  1  6  0  0  0
 14 76  1  0  0  0  0
 38 15  1  1  0  0  0
 15 77  1  0  0  0  0
 39 16  1  6  0  0  0
 16 78  1  0  0  0  0
 40 17  1  6  0  0  0
 17 79  1  0  0  0  0
 18 42  1  0  0  0  0
 18 80  1  0  0  0  0
 19 43  1  0  0  0  0
 19 81  1  0  0  0  0
 20 21  1  0  0  0  0
 20 23  1  0  0  0  0
 20 44  1  1  0  0  0
 21 22  1  0  0  0  0
 21 45  1  0  0  0  0
 22 28  1  0  0  0  0
 22 46  1  6  0  0  0
 23 24  1  0  0  0  0
 23 47  1  0  0  0  0
 24 48  1  0  0  0  0
 25 26  1  0  0  0  0
 25 29  1  0  0  0  0
 25 49  1  0  0  0  0
 26 33  1  0  0  0  0
 26 50  1  6  0  0  0
 27 30  1  0  0  0  0
 27 32  1  0  0  0  0
 27 51  1  0  0  0  0
 28 52  1  0  0  0  0
 28 53  1  0  0  0  0
 29 34  1  0  0  0  0
 29 54  1  1  0  0  0
 30 31  1  0  0  0  0
 30 55  1  0  0  0  0
 31 56  1  0  0  0  0
 32 35  1  0  0  0  0
 32 57  1  0  0  0  0
 33 37  1  0  0  0  0
 33 58  1  0  0  0  0
 34 59  1  0  0  0  0
 34 60  1  0  0  0  0
 35 42  1  1  0  0  0
 35 61  1  0  0  0  0
 36 38  1  0  0  0  0
 36 62  1  0  0  0  0
 37 63  1  0  0  0  0
 38 39  1  0  0  0  0
 38 64  1  0  0  0  0
 39 40  1  0  0  0  0
 39 65  1  0  0  0  0
 40 41  1  0  0  0  0
 40 67  1  0  0  0  0
 41 43  1  6  0  0  0
 41 68  1  0  0  0  0
 42 69  1  0  0  0  0
 42 70  1  0  0  0  0
 43 74  1  0  0  0  0
 43 75  1  0  0  0  0
M  END
> <PUBCHEM_COMPOUND_CID>
11966311

> <PUBCHEM_COMPOUND_CANONICALIZED>
1

> <PUBCHEM_CACTVS_COMPLEXITY>
946

> <PUBCHEM_CACTVS_HBOND_ACCEPTOR>
19

> <PUBCHEM_CACTVS_HBOND_DONOR>
10

> <PUBCHEM_CACTVS_ROTATABLE_BOND>
8

> <PUBCHEM_CACTVS_SUBSKEYS>
AAADcfB4PgAAAAAAAAAAAAAAAAAAASJAAAAkSJEgBIkAAAAAAAAAGgAACAAACBSwgAMACAAABgAAAAAAAAAAAAAAAAAAAAAAAAAREAIAAAAiQAAFAAAHAAHAYAwAAAAAAAAAAAAAAAAAAAAAAAAAAAAAAA==

> <PUBCHEM_IUPAC_OPENEYE_NAME>
(2S,3R,4S,5R,6R)-2-[[(1S,3S,4S,5S,8R)-3-[(2S,3R,4S,5S,6R)-2-[[(1S,3R,4S,5S,8R)-3,4-dihydroxy-2,6-dioxabicyclo[3.2.1]octan-8-yl]oxy]-3,5-dihydroxy-6-(hydroxymethyl)tetrahydropyran-4-yl]oxy-4-hydroxy-2,6-dioxabicyclo[3.2.1]octan-8-yl]oxy]-6-(hydroxymethyl)tetrahydropyran-3,4,5-triol

> <PUBCHEM_IUPAC_CAS_NAME>
(2S,3R,4S,5R,6R)-2-[[(1S,3S,4S,5S,8R)-3-[[(2S,3R,4S,5S,6R)-2-[[(1S,3R,4S,5S,8R)-3,4-dihydroxy-2,6-dioxabicyclo[3.2.1]octan-8-yl]oxy]-3,5-dihydroxy-6-(hydroxymethyl)-4-oxanyl]oxy]-4-hydroxy-2,6-dioxabicyclo[3.2.1]octan-8-yl]oxy]-6-(hydroxymethyl)oxane-3,4,5-triol

> <PUBCHEM_IUPAC_NAME_MARKUP>
(2<I>S</I>,3<I>R</I>,4<I>S</I>,5<I>R</I>,6<I>R</I>)-2-[[(1<I>S</I>,3<I>S</I>,4<I>S</I>,5<I>S</I>,8<I>R</I>)-3-[(2<I>S</I>,3<I>R</I>,4<I>S</I>,5<I>S</I>,6<I>R</I>)-2-[[(1<I>S</I>,3<I>R</I>,4<I>S</I>,5<I>S</I>,8<I>R</I>)-3,4-dihydroxy-2,6-dioxabicyclo[3.2.1]octan-8-yl]oxy]-3,5-dihydroxy-6-(hydroxymethyl)oxan-4-yl]oxy-4-hydroxy-2,6-dioxabicyclo[3.2.1]octan-8-yl]oxy]-6-(hydroxymethyl)oxane-3,4,5-triol

> <PUBCHEM_IUPAC_NAME>
(2S,3R,4S,5R,6R)-2-[[(1S,3S,4S,5S,8R)-3-[(2S,3R,4S,5S,6R)-2-[[(1S,3R,4S,5S,8R)-3,4-dihydroxy-2,6-dioxabicyclo[3.2.1]octan-8-yl]oxy]-3,5-dihydroxy-6-(hydroxymethyl)oxan-4-yl]oxy-4-hydroxy-2,6-dioxabicyclo[3.2.1]octan-8-yl]oxy]-6-(hydroxymethyl)oxane-3,4,5-triol

> <PUBCHEM_IUPAC_SYSTEMATIC_NAME>
(2S,3R,4S,5R,6R)-2-[[(1S,3S,4S,5S,8R)-3-[(2S,3R,4S,5S,6R)-2-[[(1S,3R,4S,5S,8R)-3,4-bis(oxidanyl)-2,6-dioxabicyclo[3.2.1]octan-8-yl]oxy]-6-(hydroxymethyl)-3,5-bis(oxidanyl)oxan-4-yl]oxy-4-oxidanyl-2,6-dioxabicyclo[3.2.1]octan-8-yl]oxy]-6-(hydroxymethyl)oxane-3,4,5-triol

> <PUBCHEM_IUPAC_TRADITIONAL_NAME>
(2S,3R,4S,5R,6R)-2-[[(1S,3S,4S,5S,8R)-3-[(2S,3R,4S,5S,6R)-2-[[(1S,3R,4S,5S,8R)-3,4-dihydroxy-2,6-dioxabicyclo[3.2.1]octan-8-yl]oxy]-3,5-dihydroxy-6-methylol-tetrahydropyran-4-yl]oxy-4-hydroxy-2,6-dioxabicyclo[3.2.1]octan-8-yl]oxy]-6-methylol-tetrahydropyran-3,4,5-triol

> <PUBCHEM_IUPAC_INCHI>
InChI=1S/C24H38O19/c25-1-5-9(27)11(29)12(30)22(38-5)41-17-8-4-36-20(17)15(33)24(40-8)43-18-10(28)6(2-26)39-23(14(18)32)42-16-7-3-35-19(16)13(31)21(34)37-7/h5-34H,1-4H2/t5-,6-,7+,8+,9+,10+,11+,12-,13+,14-,15+,16-,17-,18+,19+,20+,21-,22+,23+,24+/m1/s1

> <PUBCHEM_IUPAC_INCHIKEY>
MJQHZNBUODTQTK-WKGBVCLCSA-N

> <PUBCHEM_XLOGP3_AA>
-6.5

> <PUBCHEM_EXACT_MASS>
630.20072898

> <PUBCHEM_MOLECULAR_FORMULA>
C24H38O19

> <PUBCHEM_MOLECULAR_WEIGHT>
630.5

> <PUBCHEM_OPENEYE_CAN_SMILES>
C1C2C(C(O1)C(C(O2)O)O)OC3C(C(C(C(O3)CO)O)OC4C(C5C(C(O4)CO5)OC6C(C(C(C(O6)CO)O)O)O)O)O

> <PUBCHEM_OPENEYE_ISO_SMILES>
C1[C@H]2[C@H]([C@@H](O1)[C@@H]([C@@H](O2)O)O)O[C@H]3[C@@H]([C@H]([C@H]([C@H](O3)CO)O)O[C@H]4[C@H]([C@H]5[C@@H]([C@@H](O4)CO5)O[C@H]6[C@@H]([C@H]([C@H]([C@H](O6)CO)O)O)O)O)O

> <PUBCHEM_CACTVS_TPSA>
285

> <PUBCHEM_MONOISOTOPIC_WEIGHT>
630.20072898

> <PUBCHEM_TOTAL_CHARGE>
0

> <PUBCHEM_HEAVY_ATOM_COUNT>
43

> <PUBCHEM_ATOM_DEF_STEREO_COUNT>
20

> <PUBCHEM_ATOM_UDEF_STEREO_COUNT>
0

> <PUBCHEM_BOND_DEF_STEREO_COUNT>
0

> <PUBCHEM_BOND_UDEF_STEREO_COUNT>
0

> <PUBCHEM_ISOTOPIC_ATOM_COUNT>
0

> <PUBCHEM_COMPONENT_COUNT>
1

> <PUBCHEM_CACTVS_TAUTO_COUNT>
1

> <PUBCHEM_COORDINATE_TYPE>
1
5
255

> <PUBCHEM_BONDANNOTATIONS>
30  11  6
32  12  5
33  13  6
37  14  6
38  15  5
39  16  6
40  17  6
20  44  5
22  46  6
26  50  6
29  54  5
24  3  5
27  3  5
35  42  5
21  4  5
36  4  6
41  43  6
25  5  6
31  5  5
23  9  5

$$$$
4604180
  -OEChem-10012202042D

 81 86  0     1  0  0  0  0  0999 V2000
    8.3178   -1.9904    0.0000 O   0  0  0  0  0  0  0  0  0  0  0  0
    7.1694   -5.1693    0.0000 O   0  0  0  0  0  0  0  0  0  0  0  0
   10.0974   -1.8972    0.0000 O   0  0  0  0  0  0  0  0  0  0  0  0
    6.1513   -1.2124    0.0000 O   0  0  0  0  0  0  0  0  0  0  0  0
   11.8294    1.1028    0.0000 O   0  0  0  0  0  0  0  0  0  0  0  0
   11.4328    5.1693    0.0000 O   0  0  0  0  0  0  0  0  0  0  0  0
   13.5992    2.5749    0.0000 O   0  0  0  0  0  0  0  0  0  0  0  0
   10.0974    1.1028    0.0000 O   0  0  0  0  0  0  0  0  0  0  0  0
    9.8700   -4.0608    0.0000 O   0  0  0  0  0  0  0  0  0  0  0  0
    4.8245   -0.0991    0.0000 O   0  0  0  0  0  0  0  0  0  0  0  0
   11.8294   -0.8972    0.0000 O   0  0  0  0  0  0  0  0  0  0  0  0
    8.3654   -0.8972    0.0000 O   0  0  0  0  0  0  0  0  0  0  0  0
   14.3497    5.0513    0.0000 O   0  0  0  0  0  0  0  0  0  0  0  0
   15.3034    3.0959    0.0000 O   0  0  0  0  0  0  0  0  0  0  0  0
    4.8657   -2.7445    0.0000 O   0  0  0  0  0  0  0  0  0  0  0  0
    2.8961   -2.3972    0.0000 O   0  0  0  0  0  0  0  0  0  0  0  0
    2.2120   -0.5178    0.0000 O   0  0  0  0  0  0  0  0  0  0  0  0
    8.3654    2.1028    0.0000 O   0  0  0  0  0  0  0  0  0  0  0  0
    4.1404    1.7803    0.0000 O   0  0  0  0  0  0  0  0  0  0  0  0
    7.6788   -3.7706    0.0000 C   0  0  3  0  0  0  0  0  0  0  0  0
    6.4933   -2.1521    0.0000 C   0  0  3  0  0  0  0  0  0  0  0  0
    6.7725   -3.3480    0.0000 C   0  0  3  0  0  0  0  0  0  0  0  0
    9.1268   -3.3917    0.0000 C   0  0  3  0  0  0  0  0  0  0  0  0
    9.2314   -2.3972    0.0000 C   0  0  3  0  0  0  0  0  0  0  0  0
   11.8294    2.1028    0.0000 C   0  0  3  0  0  0  0  0  0  0  0  0
   12.3899    4.0292    0.0000 C   0  0  3  0  0  0  0  0  0  0  0  0
   10.0974   -0.8972    0.0000 C   0  0  3  0  0  0  0  0  0  0  0  0
   11.6828    3.3221    0.0000 C   0  0  3  0  0  0  0  0  0  0  0  0
    6.2631   -4.7467    0.0000 C   0  0  0  0  0  0  0  0  0  0  0  0
   10.9634   -0.3972    0.0000 C   0  0  3  0  0  0  0  0  0  0  0  0
   10.9634    0.6028    0.0000 C   0  0  3  0  0  0  0  0  0  0  0  0
    9.2314   -0.3972    0.0000 C   0  0  3  0  0  0  0  0  0  0  0  0
   13.8802    4.1684    0.0000 C   0  0  3  0  0  0  0  0  0  0  0  0
   10.7257    4.4622    0.0000 C   0  0  0  0  0  0  0  0  0  0  0  0
    9.2314    0.6028    0.0000 C   0  0  3  0  0  0  0  0  0  0  0  0
    5.1665   -1.0388    0.0000 C   0  0  3  0  0  0  0  0  0  0  0  0
   14.3186    3.2696    0.0000 C   0  0  3  0  0  0  0  0  0  0  0  0
    4.5237   -1.8048    0.0000 C   0  0  3  0  0  0  0  0  0  0  0  0
    3.5389   -1.6312    0.0000 C   0  0  3  0  0  0  0  0  0  0  0  0
    3.1969   -0.6915    0.0000 C   0  0  3  0  0  0  0  0  0  0  0  0
    3.8396    0.0746    0.0000 C   0  0  3  0  0  0  0  0  0  0  0  0
    8.3654    1.1028    0.0000 C   0  0  0  0  0  0  0  0  0  0  0  0
    3.4976    1.0143    0.0000 C   0  0  0  0  0  0  0  0  0  0  0  0
    8.0963   -4.2290    0.0000 H   0  0  0  0  0  0  0  0  0  0  0  0
    5.8991   -2.3289    0.0000 H   0  0  0  0  0  0  0  0  0  0  0  0
    7.2844   -3.6979    0.0000 H   0  0  0  0  0  0  0  0  0  0  0  0
    9.7057   -3.1695    0.0000 H   0  0  0  0  0  0  0  0  0  0  0  0
    9.1989   -1.7780    0.0000 H   0  0  0  0  0  0  0  0  0  0  0  0
   11.2106    2.0658    0.0000 H   0  0  0  0  0  0  0  0  0  0  0  0
   12.6255    4.6027    0.0000 H   0  0  0  0  0  0  0  0  0  0  0  0
    9.5605   -1.2072    0.0000 H   0  0  0  0  0  0  0  0  0  0  0  0
   12.0441    3.8260    0.0000 H   0  0  0  0  0  0  0  0  0  0  0  0
    5.6869   -4.5177    0.0000 H   0  0  0  0  0  0  0  0  0  0  0  0
    6.0175   -5.3160    0.0000 H   0  0  0  0  0  0  0  0  0  0  0  0
   10.9634   -1.0172    0.0000 H   0  0  0  0  0  0  0  0  0  0  0  0
   10.9634    1.2228    0.0000 H   0  0  0  0  0  0  0  0  0  0  0  0
    8.6944   -0.0872    0.0000 H   0  0  0  0  0  0  0  0  0  0  0  0
   14.5001    4.1576    0.0000 H   0  0  0  0  0  0  0  0  0  0  0  0
   10.3002    4.9132    0.0000 H   0  0  0  0  0  0  0  0  0  0  0  0
   10.2626    4.0500    0.0000 H   0  0  0  0  0  0  0  0  0  0  0  0
    9.2314    1.2228    0.0000 H   0  0  0  0  0  0  0  0  0  0  0  0
    5.3785   -1.6214    0.0000 H   0  0  0  0  0  0  0  0  0  0  0  0
   14.4998    2.6767    0.0000 H   0  0  0  0  0  0  0  0  0  0  0  0
    4.1252   -2.2798    0.0000 H   0  0  0  0  0  0  0  0  0  0  0  0
    3.7509   -2.2138    0.0000 H   0  0  0  0  0  0  0  0  0  0  0  0
    9.7411   -4.6673    0.0000 H   0  0  0  0  0  0  0  0  0  0  0  0
    2.7983   -1.1664    0.0000 H   0  0  0  0  0  0  0  0  0  0  0  0
    4.2382    0.5495    0.0000 H   0  0  0  0  0  0  0  0  0  0  0  0
    7.7548    1.2105    0.0000 H   0  0  0  0  0  0  0  0  0  0  0  0
    8.1533    0.5202    0.0000 H   0  0  0  0  0  0  0  0  0  0  0  0
   12.3664   -0.5872    0.0000 H   0  0  0  0  0  0  0  0  0  0  0  0
    7.8284   -0.5872    0.0000 H   0  0  0  0  0  0  0  0  0  0  0  0
   14.9693    5.0730    0.0000 H   0  0  0  0  0  0  0  0  0  0  0  0
   15.5154    2.5133    0.0000 H   0  0  0  0  0  0  0  0  0  0  0  0
    3.0991    1.4892    0.0000 H   0  0  0  0  0  0  0  0  0  0  0  0
    2.9607    0.7043    0.0000 H   0  0  0  0  0  0  0  0  0  0  0  0
    4.4672   -3.2194    0.0000 H   0  0  0  0  0  0  0  0  0  0  0  0
    2.2855   -2.2896    0.0000 H   0  0  0  0  0  0  0  0  0  0  0  0
    2.0000    0.0648    0.0000 H   0  0  0  0  0  0  0  0  0  0  0  0
    7.8284    2.4128    0.0000 H   0  0  0  0  0  0  0  0  0  0  0  0
    3.9284    2.3629    0.0000 H   0  0  0  0  0  0  0  0  0  0  0  0
  1 22  1  0  0  0  0
  1 24  1  0  0  0  0
  2 20  1  0  0  0  0
  2 29  1  0  0  0  0
  3 24  1  0  0  0  0
  3 27  1  0  0  0  0
  4 21  1  0  0  0  0
  4 36  1  0  0  0  0
  5 25  1  0  0  0  0
  5 31  1  0  0  0  0
  6 26  1  0  0  0  0
  6 34  1  0  0  0  0
  7 28  1  0  0  0  0
  7 37  1  0  0  0  0
  8 31  1  0  0  0  0
  8 35  1  0  0  0  0
  9 23  1  0  0  0  0
  9 66  1  0  0  0  0
 10 36  1  0  0  0  0
 10 41  1  0  0  0  0
 11 30  1  0  0  0  0
 11 71  1  0  0  0  0
 12 32  1  0  0  0  0
 12 72  1  0  0  0  0
 13 33  1  0  0  0  0
 13 73  1  0  0  0  0
 14 37  1  0  0  0  0
 14 74  1  0  0  0  0
 15 38  1  0  0  0  0
 15 77  1  0  0  0  0
 16 39  1  0  0  0  0
 16 78  1  0  0  0  0
 17 40  1  0  0  0  0
 17 79  1  0  0  0  0
 18 42  1  0  0  0  0
 18 80  1  0  0  0  0
 19 43  1  0  0  0  0
 19 81  1  0  0  0  0
 20 21  1  0  0  0  0
 20 23  1  0  0  0  0
 20 44  1  0  0  0  0
 21 22  1  0  0  0  0
 21 45  1  0  0  0  0
 22 29  1  0  0  0  0
 22 46  1  0  0  0  0
 23 24  1  0  0  0  0
 23 47  1  0  0  0  0
 24 48  1  0  0  0  0
 25 26  1  0  0  0  0
 25 28  1  0  0  0  0
 25 49  1  0  0  0  0
 26 33  1  0  0  0  0
 26 50  1  0  0  0  0
 27 30  1  0  0  0  0
 27 32  1  0  0  0  0
 27 51  1  0  0  0  0
 28 34  1  0  0  0  0
 28 52  1  0  0  0  0
 29 53  1  0  0  0  0
 29 54  1  0  0  0  0
 30 31  1  0  0  0  0
 30 55  1  0  0  0  0
 31 56  1  0  0  0  0
 32 35  1  0  0  0  0
 32 57  1  0  0  0  0
 33 37  1  0  0  0  0
 33 58  1  0  0  0  0
 34 59  1  0  0  0  0
 34 60  1  0  0  0  0
 35 42  1  0  0  0  0
 35 61  1  0  0  0  0
 36 38  1  0  0  0  0
 36 62  1  0  0  0  0
 37 63  1  0  0  0  0
 38 39  1  0  0  0  0
 38 64  1  0  0  0  0
 39 40  1  0  0  0  0
 39 65  1  0  0  0  0
 40 41  1  0  0  0  0
 40 67  1  0  0  0  0
 41 43  1  0  0  0  0
 41 68  1  0  0  0  0
 42 69  1  0  0  0  0
 42 70  1  0  0  0  0
 43 75  1  0  0  0  0
 43 76  1  0  0  0  0
M  END
> <PUBCHEM_COMPOUND_CID>
4604180

> <PUBCHEM_COMPOUND_CANONICALIZED>
1

> <PUBCHEM_CACTVS_COMPLEXITY>
946

> <PUBCHEM_CACTVS_HBOND_ACCEPTOR>
19

> <PUBCHEM_CACTVS_HBOND_DONOR>
10

> <PUBCHEM_CACTVS_ROTATABLE_BOND>
8

> <PUBCHEM_CACTVS_SUBSKEYS>
AAADcfB4PgAAAAAAAAAAAAAAAAAAASJAAAAkSJEgBIkAAAAAAAAAGgAACAAACBSwgAMACAAABgAAAAAAAAAAAAAAAAAAAAAAAAAREAIAAAAiQAAFAAAHAAHAYAwAAAAAAAAAAAAAAAAAAAAAAAAAAAAAAA==

> <PUBCHEM_IUPAC_OPENEYE_NAME>
2-[[3-[2-[(3,4-dihydroxy-2,6-dioxabicyclo[3.2.1]octan-8-yl)oxy]-3,5-dihydroxy-6-(hydroxymethyl)tetrahydropyran-4-yl]oxy-4-hydroxy-2,6-dioxabicyclo[3.2.1]octan-8-yl]oxy]-6-(hydroxymethyl)tetrahydropyran-3,4,5-triol

> <PUBCHEM_IUPAC_CAS_NAME>
2-[[3-[[2-[(3,4-dihydroxy-2,6-dioxabicyclo[3.2.1]octan-8-yl)oxy]-3,5-dihydroxy-6-(hydroxymethyl)-4-oxanyl]oxy]-4-hydroxy-2,6-dioxabicyclo[3.2.1]octan-8-yl]oxy]-6-(hydroxymethyl)oxane-3,4,5-triol

> <PUBCHEM_IUPAC_NAME_MARKUP>
2-[[3-[2-[(3,4-dihydroxy-2,6-dioxabicyclo[3.2.1]octan-8-yl)oxy]-3,5-dihydroxy-6-(hydroxymethyl)oxan-4-yl]oxy-4-hydroxy-2,6-dioxabicyclo[3.2.1]octan-8-yl]oxy]-6-(hydroxymethyl)oxane-3,4,5-triol

> <PUBCHEM_IUPAC_NAME>
2-[[3-[2-[(3,4-dihydroxy-2,6-dioxabicyclo[3.2.1]octan-8-yl)oxy]-3,5-dihydroxy-6-(hydroxymethyl)oxan-4-yl]oxy-4-hydroxy-2,6-dioxabicyclo[3.2.1]octan-8-yl]oxy]-6-(hydroxymethyl)oxane-3,4,5-triol

> <PUBCHEM_IUPAC_SYSTEMATIC_NAME>
2-[[3-[2-[[3,4-bis(oxidanyl)-2,6-dioxabicyclo[3.2.1]octan-8-yl]oxy]-6-(hydroxymethyl)-3,5-bis(oxidanyl)oxan-4-yl]oxy-4-oxidanyl-2,6-dioxabicyclo[3.2.1]octan-8-yl]oxy]-6-(hydroxymethyl)oxane-3,4,5-triol

> <PUBCHEM_IUPAC_TRADITIONAL_NAME>
2-[[3-[2-[(3,4-dihydroxy-2,6-dioxabicyclo[3.2.1]octan-8-yl)oxy]-3,5-dihydroxy-6-methylol-tetrahydropyran-4-yl]oxy-4-hydroxy-2,6-dioxabicyclo[3.2.1]octan-8-yl]oxy]-6-methylol-tetrahydropyran-3,4,5-triol

> <PUBCHEM_IUPAC_INCHI>
InChI=1S/C24H38O19/c25-1-5-9(27)11(29)12(30)22(38-5)41-17-8-4-36-20(17)15(33)24(40-8)43-18-10(28)6(2-26)39-23(14(18)32)42-16-7-3-35-19(16)13(31)21(34)37-7/h5-34H,1-4H2

> <PUBCHEM_IUPAC_INCHIKEY>
MJQHZNBUODTQTK-UHFFFAOYSA-N

> <PUBCHEM_XLOGP3_AA>
-6.5

> <PUBCHEM_EXACT_MASS>
630.20072898

> <PUBCHEM_MOLECULAR_FORMULA>
C24H38O19

> <PUBCHEM_MOLECULAR_WEIGHT>
630.5

> <PUBCHEM_OPENEYE_CAN_SMILES>
C1C2C(C(O1)C(C(O2)O)O)OC3C(C(C(C(O3)CO)O)OC4C(C5C(C(O4)CO5)OC6C(C(C(C(O6)CO)O)O)O)O)O

> <PUBCHEM_OPENEYE_ISO_SMILES>
C1C2C(C(O1)C(C(O2)O)O)OC3C(C(C(C(O3)CO)O)OC4C(C5C(C(O4)CO5)OC6C(C(C(C(O6)CO)O)O)O)O)O

> <PUBCHEM_CACTVS_TPSA>
285

> <PUBCHEM_MONOISOTOPIC_WEIGHT>
630.20072898

> <PUBCHEM_TOTAL_CHARGE>
0

> <PUBCHEM_HEAVY_ATOM_COUNT>
43

> <PUBCHEM_ATOM_DEF_STEREO_COUNT>
0

> <PUBCHEM_ATOM_UDEF_STEREO_COUNT>
20

> <PUBCHEM_BOND_DEF_STEREO_COUNT>
0

> <PUBCHEM_BOND_UDEF_STEREO_COUNT>
0

> <PUBCHEM_ISOTOPIC_ATOM_COUNT>
0

> <PUBCHEM_COMPONENT_COUNT>
1

> <PUBCHEM_CACTVS_TAUTO_COUNT>
-1

> <PUBCHEM_COORDINATE_TYPE>
1
5
255

> <PUBCHEM_BONDANNOTATIONS>
30  11  3
32  12  3
33  13  3
37  14  3
38  15  3
39  16  3
40  17  3
20  2  3
22  29  3
28  34  3
24  3  3
27  3  3
35  42  3
21  4  3
36  4  3
41  43  3
25  5  3
31  5  3
26  6  3
23  9  3

$$$$
139246511
  -OEChem-10012202042D

 81 86  0     1  0  0  0  0  0999 V2000
    8.8051   -1.9904    0.0000 O   0  0  0  0  0  0  0  0  0  0  0  0
    7.6566   -5.1693    0.0000 O   0  0  0  0  0  0  0  0  0  0  0  0
   10.5846   -1.8972    0.0000 O   0  0  0  0  0  0  0  0  0  0  0  0
    6.6385   -1.2124    0.0000 O   0  0  0  0  0  0  0  0  0  0  0  0
   12.3167    1.1028    0.0000 O   0  0  0  0  0  0  0  0  0  0  0  0
   11.9201    5.1693    0.0000 O   0  0  0  0  0  0  0  0  0  0  0  0
   14.0865    2.5749    0.0000 O   0  0  0  0  0  0  0  0  0  0  0  0
   10.5846    1.1028    0.0000 O   0  0  0  0  0  0  0  0  0  0  0  0
   10.3572   -4.0608    0.0000 O   0  0  0  0  0  0  0  0  0  0  0  0
    5.0109   -1.8048    0.0000 O   0  0  0  0  0  0  0  0  0  0  0  0
   12.3167   -0.8972    0.0000 O   0  0  0  0  0  0  0  0  0  0  0  0
    8.8526   -0.8972    0.0000 O   0  0  0  0  0  0  0  0  0  0  0  0
   14.8369    5.0513    0.0000 O   0  0  0  0  0  0  0  0  0  0  0  0
   15.7906    3.0959    0.0000 O   0  0  0  0  0  0  0  0  0  0  0  0
    5.9545    0.6670    0.0000 O   0  0  0  0  0  0  0  0  0  0  0  0
    3.9849    1.0143    0.0000 O   0  0  0  0  0  0  0  0  0  0  0  0
    2.6993   -0.5178    0.0000 O   0  0  0  0  0  0  0  0  0  0  0  0
    8.8526    2.1028    0.0000 O   0  0  0  0  0  0  0  0  0  0  0  0
    2.3985   -2.2236    0.0000 O   0  0  0  0  0  0  0  0  0  0  0  0
    8.1661   -3.7706    0.0000 C   0  0  2  0  0  0  0  0  0  0  0  0
    6.9806   -2.1521    0.0000 C   0  0  1  0  0  0  0  0  0  0  0  0
    7.2598   -3.3480    0.0000 C   0  0  2  0  0  0  0  0  0  0  0  0
    9.6141   -3.3917    0.0000 C   0  0  1  0  0  0  0  0  0  0  0  0
    9.7186   -2.3972    0.0000 C   0  0  1  0  0  0  0  0  0  0  0  0
   12.3167    2.1028    0.0000 C   0  0  1  0  0  0  0  0  0  0  0  0
   12.8772    4.0292    0.0000 C   0  0  2  0  0  0  0  0  0  0  0  0
   10.5846   -0.8972    0.0000 C   0  0  1  0  0  0  0  0  0  0  0  0
    6.7503   -4.7467    0.0000 C   0  0  0  0  0  0  0  0  0  0  0  0
   12.1701    3.3221    0.0000 C   0  0  2  0  0  0  0  0  0  0  0  0
   11.4507   -0.3972    0.0000 C   0  0  2  0  0  0  0  0  0  0  0  0
   11.4507    0.6028    0.0000 C   0  0  2  0  0  0  0  0  0  0  0  0
    9.7186   -0.3972    0.0000 C   0  0  2  0  0  0  0  0  0  0  0  0
   14.3674    4.1684    0.0000 C   0  0  1  0  0  0  0  0  0  0  0  0
   11.2130    4.4622    0.0000 C   0  0  0  0  0  0  0  0  0  0  0  0
    9.7186    0.6028    0.0000 C   0  0  1  0  0  0  0  0  0  0  0  0
    5.6537   -1.0388    0.0000 C   0  0  2  0  0  0  0  0  0  0  0  0
   14.8058    3.2696    0.0000 C   0  0  1  0  0  0  0  0  0  0  0  0
    5.3117   -0.0991    0.0000 C   0  0  1  0  0  0  0  0  0  0  0  0
    4.3269    0.0746    0.0000 C   0  0  2  0  0  0  0  0  0  0  0  0
    3.6841   -0.6915    0.0000 C   0  0  2  0  0  0  0  0  0  0  0  0
    4.0261   -1.6312    0.0000 C   0  0  1  0  0  0  0  0  0  0  0  0
    8.8526    1.1028    0.0000 C   0  0  0  0  0  0  0  0  0  0  0  0
    3.3833   -2.3972    0.0000 C   0  0  0  0  0  0  0  0  0  0  0  0
    8.9365   -4.1298    0.0000 H   0  0  0  0  0  0  0  0  0  0  0  0
    6.3863   -2.3289    0.0000 H   0  0  0  0  0  0  0  0  0  0  0  0
    6.4894   -2.9888    0.0000 H   0  0  0  0  0  0  0  0  0  0  0  0
   10.1929   -3.1695    0.0000 H   0  0  0  0  0  0  0  0  0  0  0  0
    9.6862   -1.7780    0.0000 H   0  0  0  0  0  0  0  0  0  0  0  0
   11.6978    2.0658    0.0000 H   0  0  0  0  0  0  0  0  0  0  0  0
   13.4782    4.6302    0.0000 H   0  0  0  0  0  0  0  0  0  0  0  0
   10.0477   -1.2072    0.0000 H   0  0  0  0  0  0  0  0  0  0  0  0
    6.1742   -4.5177    0.0000 H   0  0  0  0  0  0  0  0  0  0  0  0
    6.5047   -5.3160    0.0000 H   0  0  0  0  0  0  0  0  0  0  0  0
   11.5690    2.7211    0.0000 H   0  0  0  0  0  0  0  0  0  0  0  0
   11.4507   -1.0172    0.0000 H   0  0  0  0  0  0  0  0  0  0  0  0
   11.4507    1.2228    0.0000 H   0  0  0  0  0  0  0  0  0  0  0  0
    9.1817   -0.0872    0.0000 H   0  0  0  0  0  0  0  0  0  0  0  0
   14.9874    4.1576    0.0000 H   0  0  0  0  0  0  0  0  0  0  0  0
   10.7875    4.9132    0.0000 H   0  0  0  0  0  0  0  0  0  0  0  0
   10.7499    4.0500    0.0000 H   0  0  0  0  0  0  0  0  0  0  0  0
    9.7186    1.2228    0.0000 H   0  0  0  0  0  0  0  0  0  0  0  0
    5.8658   -1.6214    0.0000 H   0  0  0  0  0  0  0  0  0  0  0  0
   15.1789    3.7647    0.0000 H   0  0  0  0  0  0  0  0  0  0  0  0
    5.9223   -0.2067    0.0000 H   0  0  0  0  0  0  0  0  0  0  0  0
    3.7163    0.1822    0.0000 H   0  0  0  0  0  0  0  0  0  0  0  0
   10.2283   -4.6673    0.0000 H   0  0  0  0  0  0  0  0  0  0  0  0
    3.2856   -1.1664    0.0000 H   0  0  0  0  0  0  0  0  0  0  0  0
    4.2382   -2.2138    0.0000 H   0  0  0  0  0  0  0  0  0  0  0  0
    8.2420    1.2105    0.0000 H   0  0  0  0  0  0  0  0  0  0  0  0
    8.6405    0.5202    0.0000 H   0  0  0  0  0  0  0  0  0  0  0  0
   12.8536   -0.5872    0.0000 H   0  0  0  0  0  0  0  0  0  0  0  0
    8.3157   -0.5872    0.0000 H   0  0  0  0  0  0  0  0  0  0  0  0
   15.4565    5.0730    0.0000 H   0  0  0  0  0  0  0  0  0  0  0  0
    3.1713   -2.9798    0.0000 H   0  0  0  0  0  0  0  0  0  0  0  0
    3.9203   -2.7072    0.0000 H   0  0  0  0  0  0  0  0  0  0  0  0
   16.0027    2.5133    0.0000 H   0  0  0  0  0  0  0  0  0  0  0  0
    5.7424    1.2496    0.0000 H   0  0  0  0  0  0  0  0  0  0  0  0
    3.3743    1.1219    0.0000 H   0  0  0  0  0  0  0  0  0  0  0  0
    2.4872    0.0648    0.0000 H   0  0  0  0  0  0  0  0  0  0  0  0
    8.3157    2.4128    0.0000 H   0  0  0  0  0  0  0  0  0  0  0  0
    2.0000   -2.6985    0.0000 H   0  0  0  0  0  0  0  0  0  0  0  0
  1 22  1  0  0  0  0
  1 24  1  0  0  0  0
  2 20  1  0  0  0  0
  2 28  1  0  0  0  0
 24  3  1  1  0  0  0
 27  3  1  6  0  0  0
 21  4  1  1  0  0  0
 36  4  1  6  0  0  0
 25  5  1  6  0  0  0
 31  5  1  1  0  0  0
  6 26  1  0  0  0  0
  6 34  1  0  0  0  0
  7 29  1  0  0  0  0
  7 37  1  0  0  0  0
  8 31  1  0  0  0  0
  8 35  1  0  0  0  0
 23  9  1  1  0  0  0
  9 66  1  0  0  0  0
 10 36  1  0  0  0  0
 10 41  1  0  0  0  0
 30 11  1  6  0  0  0
 11 71  1  0  0  0  0
 32 12  1  1  0  0  0
 12 72  1  0  0  0  0
 33 13  1  6  0  0  0
 13 73  1  0  0  0  0
 37 14  1  6  0  0  0
 14 76  1  0  0  0  0
 38 15  1  1  0  0  0
 15 77  1  0  0  0  0
 39 16  1  6  0  0  0
 16 78  1  0  0  0  0
 40 17  1  6  0  0  0
 17 79  1  0  0  0  0
 18 42  1  0  0  0  0
 18 80  1  0  0  0  0
 19 43  1  0  0  0  0
 19 81  1  0  0  0  0
 20 21  1  0  0  0  0
 20 23  1  0  0  0  0
 20 44  1  1  0  0  0
 21 22  1  0  0  0  0
 21 45  1  0  0  0  0
 22 28  1  0  0  0  0
 22 46  1  6  0  0  0
 23 24  1  0  0  0  0
 23 47  1  0  0  0  0
 24 48  1  0  0  0  0
 25 26  1  0  0  0  0
 25 29  1  0  0  0  0
 25 49  1  0  0  0  0
 26 33  1  0  0  0  0
 26 50  1  6  0  0  0
 27 30  1  0  0  0  0
 27 32  1  0  0  0  0
 27 51  1  0  0  0  0
 28 52  1  0  0  0  0
 28 53  1  0  0  0  0
 29 34  1  0  0  0  0
 29 54  1  1  0  0  0
 30 31  1  0  0  0  0
 30 55  1  0  0  0  0
 31 56  1  0  0  0  0
 32 35  1  0  0  0  0
 32 57  1  0  0  0  0
 33 37  1  0  0  0  0
 33 58  1  0  0  0  0
 34 59  1  0  0  0  0
 34 60  1  0  0  0  0
 35 42  1  1  0  0  0
 35 61  1  0  0  0  0
 36 38  1  0  0  0  0
 36 62  1  0  0  0  0
 37 63  1  0  0  0  0
 38 39  1  0  0  0  0
 38 64  1  0  0  0  0
 39 40  1  0  0  0  0
 39 65  1  0  0  0  0
 40 41  1  0  0  0  0
 40 67  1  0  0  0  0
 41 43  1  6  0  0  0
 41 68  1  0  0  0  0
 42 69  1  0  0  0  0
 42 70  1  0  0  0  0
 43 74  1  0  0  0  0
 43 75  1  0  0  0  0
M  END
> <PUBCHEM_COMPOUND_CID>
139246511

> <PUBCHEM_COMPOUND_CANONICALIZED>
1

> <PUBCHEM_CACTVS_COMPLEXITY>
946

> <PUBCHEM_CACTVS_HBOND_ACCEPTOR>
19

> <PUBCHEM_CACTVS_HBOND_DONOR>
10

> <PUBCHEM_CACTVS_ROTATABLE_BOND>
8

> <PUBCHEM_CACTVS_SUBSKEYS>
AAADcfB4PgAAAAAAAAAAAAAAAAAAASJAAAAkSJEgBIkAAAAAAAAAGgAACAAACBSwgAMACAAABgAAAAAAAAAAAAAAAAAAAAAAAAAREAIAAAAiQAAFAAAHAAHAYAwAAAAAAAAAAAAAAAAAAAAAAAAAAAAAAA==

> <PUBCHEM_IUPAC_OPENEYE_NAME>
(2S,3R,4S,5R,6R)-2-[[(1S,3S,4S,5S,8R)-3-[(2S,3R,4R,5S,6R)-2-[[(1S,3R,4S,5S,8R)-3,4-dihydroxy-2,6-dioxabicyclo[3.2.1]octan-8-yl]oxy]-3,5-dihydroxy-6-(hydroxymethyl)tetrahydropyran-4-yl]oxy-4-hydroxy-2,6-dioxabicyclo[3.2.1]octan-8-yl]oxy]-6-(hydroxymethyl)tetrahydropyran-3,4,5-triol

> <PUBCHEM_IUPAC_CAS_NAME>
(2S,3R,4S,5R,6R)-2-[[(1S,3S,4S,5S,8R)-3-[[(2S,3R,4R,5S,6R)-2-[[(1S,3R,4S,5S,8R)-3,4-dihydroxy-2,6-dioxabicyclo[3.2.1]octan-8-yl]oxy]-3,5-dihydroxy-6-(hydroxymethyl)-4-oxanyl]oxy]-4-hydroxy-2,6-dioxabicyclo[3.2.1]octan-8-yl]oxy]-6-(hydroxymethyl)oxane-3,4,5-triol

> <PUBCHEM_IUPAC_NAME_MARKUP>
(2<I>S</I>,3<I>R</I>,4<I>S</I>,5<I>R</I>,6<I>R</I>)-2-[[(1<I>S</I>,3<I>S</I>,4<I>S</I>,5<I>S</I>,8<I>R</I>)-3-[(2<I>S</I>,3<I>R</I>,4<I>R</I>,5<I>S</I>,6<I>R</I>)-2-[[(1<I>S</I>,3<I>R</I>,4<I>S</I>,5<I>S</I>,8<I>R</I>)-3,4-dihydroxy-2,6-dioxabicyclo[3.2.1]octan-8-yl]oxy]-3,5-dihydroxy-6-(hydroxymethyl)oxan-4-yl]oxy-4-hydroxy-2,6-dioxabicyclo[3.2.1]octan-8-yl]oxy]-6-(hydroxymethyl)oxane-3,4,5-triol

> <PUBCHEM_IUPAC_NAME>
(2S,3R,4S,5R,6R)-2-[[(1S,3S,4S,5S,8R)-3-[(2S,3R,4R,5S,6R)-2-[[(1S,3R,4S,5S,8R)-3,4-dihydroxy-2,6-dioxabicyclo[3.2.1]octan-8-yl]oxy]-3,5-dihydroxy-6-(hydroxymethyl)oxan-4-yl]oxy-4-hydroxy-2,6-dioxabicyclo[3.2.1]octan-8-yl]oxy]-6-(hydroxymethyl)oxane-3,4,5-triol

> <PUBCHEM_IUPAC_SYSTEMATIC_NAME>
(2S,3R,4S,5R,6R)-2-[[(1S,3S,4S,5S,8R)-3-[(2S,3R,4R,5S,6R)-2-[[(1S,3R,4S,5S,8R)-3,4-bis(oxidanyl)-2,6-dioxabicyclo[3.2.1]octan-8-yl]oxy]-6-(hydroxymethyl)-3,5-bis(oxidanyl)oxan-4-yl]oxy-4-oxidanyl-2,6-dioxabicyclo[3.2.1]octan-8-yl]oxy]-6-(hydroxymethyl)oxane-3,4,5-triol

> <PUBCHEM_IUPAC_TRADITIONAL_NAME>
(2S,3R,4S,5R,6R)-2-[[(1S,3S,4S,5S,8R)-3-[(2S,3R,4R,5S,6R)-2-[[(1S,3R,4S,5S,8R)-3,4-dihydroxy-2,6-dioxabicyclo[3.2.1]octan-8-yl]oxy]-3,5-dihydroxy-6-methylol-tetrahydropyran-4-yl]oxy-4-hydroxy-2,6-dioxabicyclo[3.2.1]octan-8-yl]oxy]-6-methylol-tetrahydropyran-3,4,5-triol

> <PUBCHEM_IUPAC_INCHI>
InChI=1S/C24H38O19/c25-1-5-9(27)11(29)12(30)22(38-5)41-17-8-4-36-20(17)15(33)24(40-8)43-18-10(28)6(2-26)39-23(14(18)32)42-16-7-3-35-19(16)13(31)21(34)37-7/h5-34H,1-4H2/t5-,6-,7+,8+,9+,10+,11+,12-,13+,14-,15+,16-,17-,18-,19+,20+,21-,22+,23+,24+/m1/s1

> <PUBCHEM_IUPAC_INCHIKEY>
MJQHZNBUODTQTK-UXZGTJFASA-N

> <PUBCHEM_XLOGP3_AA>
-6.5

> <PUBCHEM_EXACT_MASS>
630.20072898

> <PUBCHEM_MOLECULAR_FORMULA>
C24H38O19

> <PUBCHEM_MOLECULAR_WEIGHT>
630.5

> <PUBCHEM_OPENEYE_CAN_SMILES>
C1C2C(C(O1)C(C(O2)O)O)OC3C(C(C(C(O3)CO)O)OC4C(C5C(C(O4)CO5)OC6C(C(C(C(O6)CO)O)O)O)O)O

> <PUBCHEM_OPENEYE_ISO_SMILES>
C1[C@H]2[C@H]([C@@H](O1)[C@@H]([C@@H](O2)O)O)O[C@H]3[C@@H]([C@@H]([C@H]([C@H](O3)CO)O)O[C@H]4[C@H]([C@H]5[C@@H]([C@@H](O4)CO5)O[C@H]6[C@@H]([C@H]([C@H]([C@H](O6)CO)O)O)O)O)O

> <PUBCHEM_CACTVS_TPSA>
285

> <PUBCHEM_MONOISOTOPIC_WEIGHT>
630.20072898

> <PUBCHEM_TOTAL_CHARGE>
0

> <PUBCHEM_HEAVY_ATOM_COUNT>
43

> <PUBCHEM_ATOM_DEF_STEREO_COUNT>
20

> <PUBCHEM_ATOM_UDEF_STEREO_COUNT>
0

> <PUBCHEM_BOND_DEF_STEREO_COUNT>
0

> <PUBCHEM_BOND_UDEF_STEREO_COUNT>
0

> <PUBCHEM_ISOTOPIC_ATOM_COUNT>
0

> <PUBCHEM_COMPONENT_COUNT>
1

> <PUBCHEM_CACTVS_TAUTO_COUNT>
-1

> <PUBCHEM_COORDINATE_TYPE>
1
5
255

> <PUBCHEM_BONDANNOTATIONS>
30  11  6
32  12  5
33  13  6
37  14  6
38  15  5
39  16  6
40  17  6
20  44  5
22  46  6
26  50  6
29  54  5
24  3  5
27  3  6
35  42  5
21  4  5
36  4  6
41  43  6
25  5  6
31  5  5
23  9  5

$$$$
