12315005
  -OEChem-10012202132D

 80 83  0     1  0  0  0  0  0999 V2000
    4.6782   -3.5032    0.0000 O   0  0  0  0  0  0  0  0  0  0  0  0
    3.1682   -2.6546    0.0000 O   0  0  0  0  0  0  0  0  0  0  0  0
    5.5320    1.4953    0.0000 C   0  0  1  0  0  0  0  0  0  0  0  0
    6.3981    1.9953    0.0000 C   0  0  1  0  0  0  0  0  0  0  0  0
    5.5320    0.4953    0.0000 C   0  0  1  0  0  0  0  0  0  0  0  0
    8.1741    2.0022    0.0000 C   0  0  2  0  0  0  0  0  0  0  0  0
    4.6381   -0.0394    0.0000 C   0  0  2  0  0  0  0  0  0  0  0  0
    8.1821    3.0438    0.0000 C   0  0  1  0  0  0  0  0  0  0  0  0
    7.2641    1.4953    0.0000 C   0  0  0  0  0  0  0  0  0  0  0  0
    6.3820    3.0368    0.0000 C   0  0  0  0  0  0  0  0  0  0  0  0
    4.6381    2.0300    0.0000 C   0  0  0  0  0  0  0  0  0  0  0  0
    7.2800    3.5646    0.0000 C   0  0  0  0  0  0  0  0  0  0  0  0
    6.3981   -0.0047    0.0000 C   0  0  0  0  0  0  0  0  0  0  0  0
    3.7320    0.4745    0.0000 C   0  0  1  0  0  0  0  0  0  0  0  0
    9.1009    1.4381    0.0000 C   0  0  2  0  0  0  0  0  0  0  0  0
    3.7320    1.5161    0.0000 C   0  0  0  0  0  0  0  0  0  0  0  0
    7.2641    0.4953    0.0000 C   0  0  0  0  0  0  0  0  0  0  0  0
    5.1900    2.4350    0.0000 C   0  0  0  0  0  0  0  0  0  0  0  0
    9.1176    3.5935    0.0000 C   0  0  0  0  0  0  0  0  0  0  0  0
    5.7553    2.7613    0.0000 C   0  0  0  0  0  0  0  0  0  0  0  0
   10.0488    1.9660    0.0000 C   0  0  1  0  0  0  0  0  0  0  0  0
    4.1482   -0.9111    0.0000 C   0  0  0  0  0  0  0  0  0  0  0  0
   10.0572    3.0510    0.0000 C   0  0  0  0  0  0  0  0  0  0  0  0
    5.1481   -0.8995    0.0000 C   0  0  0  0  0  0  0  0  0  0  0  0
    8.1898    4.0437    0.0000 C   0  0  0  0  0  0  0  0  0  0  0  0
    2.8680   -0.0288    0.0000 C   0  0  0  0  0  0  0  0  0  0  0  0
    9.0817    0.4382    0.0000 C   0  0  0  0  0  0  0  0  0  0  0  0
   10.9090    1.4560    0.0000 C   0  0  0  0  0  0  0  0  0  0  0  0
    4.6581   -1.7713    0.0000 C   0  0  0  0  0  0  0  0  0  0  0  0
    2.0000    0.4678    0.0000 C   0  0  0  0  0  0  0  0  0  0  0  0
    2.8718   -1.0288    0.0000 C   0  0  0  0  0  0  0  0  0  0  0  0
    4.1682   -2.6430    0.0000 C   0  0  0  0  0  0  0  0  0  0  0  0
    5.5386   -0.3547    0.0000 H   0  0  0  0  0  0  0  0  0  0  0  0
    8.1577    1.1523    0.0000 H   0  0  0  0  0  0  0  0  0  0  0  0
    6.1640    3.6172    0.0000 H   0  0  0  0  0  0  0  0  0  0  0  0
    5.7729    2.9213    0.0000 H   0  0  0  0  0  0  0  0  0  0  0  0
    5.0427    2.4998    0.0000 H   0  0  0  0  0  0  0  0  0  0  0  0
    4.2445    2.5090    0.0000 H   0  0  0  0  0  0  0  0  0  0  0  0
    7.6774    4.0405    0.0000 H   0  0  0  0  0  0  0  0  0  0  0  0
    6.8791    4.0374    0.0000 H   0  0  0  0  0  0  0  0  0  0  0  0
    5.9995   -0.4796    0.0000 H   0  0  0  0  0  0  0  0  0  0  0  0
    6.7966   -0.4796    0.0000 H   0  0  0  0  0  0  0  0  0  0  0  0
    3.7356   -0.1455    0.0000 H   0  0  0  0  0  0  0  0  0  0  0  0
    8.5576    1.1395    0.0000 H   0  0  0  0  0  0  0  0  0  0  0  0
    3.5230    2.0998    0.0000 H   0  0  0  0  0  0  0  0  0  0  0  0
    3.1212    1.4100    0.0000 H   0  0  0  0  0  0  0  0  0  0  0  0
    7.8010    0.1853    0.0000 H   0  0  0  0  0  0  0  0  0  0  0  0
    5.7726    2.6470    0.0000 H   0  0  0  0  0  0  0  0  0  0  0  0
    4.9780    3.0176    0.0000 H   0  0  0  0  0  0  0  0  0  0  0  0
    4.6074    2.2229    0.0000 H   0  0  0  0  0  0  0  0  0  0  0  0
    9.5149    4.0694    0.0000 H   0  0  0  0  0  0  0  0  0  0  0  0
    8.7166    4.0664    0.0000 H   0  0  0  0  0  0  0  0  0  0  0  0
    6.2302    3.1599    0.0000 H   0  0  0  0  0  0  0  0  0  0  0  0
    5.3568    3.2363    0.0000 H   0  0  0  0  0  0  0  0  0  0  0  0
    5.2803    2.3628    0.0000 H   0  0  0  0  0  0  0  0  0  0  0  0
   10.0405    1.3461    0.0000 H   0  0  0  0  0  0  0  0  0  0  0  0
    3.6686   -0.5181    0.0000 H   0  0  0  0  0  0  0  0  0  0  0  0
    3.6778   -1.3151    0.0000 H   0  0  0  0  0  0  0  0  0  0  0  0
   10.6672    2.9402    0.0000 H   0  0  0  0  0  0  0  0  0  0  0  0
   10.2707    3.6330    0.0000 H   0  0  0  0  0  0  0  0  0  0  0  0
    4.6148   -1.2157    0.0000 H   0  0  0  0  0  0  0  0  0  0  0  0
    5.4643   -1.4329    0.0000 H   0  0  0  0  0  0  0  0  0  0  0  0
    5.6814   -0.5834    0.0000 H   0  0  0  0  0  0  0  0  0  0  0  0
    8.8098    4.0389    0.0000 H   0  0  0  0  0  0  0  0  0  0  0  0
    8.1946    4.6637    0.0000 H   0  0  0  0  0  0  0  0  0  0  0  0
    7.5699    4.0485    0.0000 H   0  0  0  0  0  0  0  0  0  0  0  0
    8.4618    0.4502    0.0000 H   0  0  0  0  0  0  0  0  0  0  0  0
    9.0697   -0.1816    0.0000 H   0  0  0  0  0  0  0  0  0  0  0  0
    9.7015    0.4263    0.0000 H   0  0  0  0  0  0  0  0  0  0  0  0
   10.5928    0.9227    0.0000 H   0  0  0  0  0  0  0  0  0  0  0  0
   11.4423    1.1398    0.0000 H   0  0  0  0  0  0  0  0  0  0  0  0
   11.2252    1.9893    0.0000 H   0  0  0  0  0  0  0  0  0  0  0  0
    5.1377   -2.1643    0.0000 H   0  0  0  0  0  0  0  0  0  0  0  0
    5.1284   -1.3673    0.0000 H   0  0  0  0  0  0  0  0  0  0  0  0
    2.3079    1.0059    0.0000 H   0  0  0  0  0  0  0  0  0  0  0  0
    1.4619    0.7757    0.0000 H   0  0  0  0  0  0  0  0  0  0  0  0
    1.6921   -0.0703    0.0000 H   0  0  0  0  0  0  0  0  0  0  0  0
    2.3361   -1.3409    0.0000 H   0  0  0  0  0  0  0  0  0  0  0  0
    3.4099   -1.3368    0.0000 H   0  0  0  0  0  0  0  0  0  0  0  0
    4.3744   -4.0437    0.0000 H   0  0  0  0  0  0  0  0  0  0  0  0
  1 32  1  0  0  0  0
  1 80  1  0  0  0  0
  2 32  2  0  0  0  0
  3  4  1  0  0  0  0
  3  5  1  0  0  0  0
  3 11  1  0  0  0  0
  3 18  1  6  0  0  0
  4  9  1  0  0  0  0
  4 10  1  0  0  0  0
  4 20  1  1  0  0  0
  5  7  1  0  0  0  0
  5 13  1  0  0  0  0
  5 33  1  1  0  0  0
  6  8  1  0  0  0  0
  6  9  1  0  0  0  0
  6 15  1  0  0  0  0
  6 34  1  6  0  0  0
  7 14  1  0  0  0  0
  7 22  1  0  0  0  0
  7 24  1  6  0  0  0
  8 12  1  0  0  0  0
  8 19  1  0  0  0  0
  8 25  1  6  0  0  0
  9 17  2  0  0  0  0
 10 12  1  0  0  0  0
 10 35  1  0  0  0  0
 10 36  1  0  0  0  0
 11 16  1  0  0  0  0
 11 37  1  0  0  0  0
 11 38  1  0  0  0  0
 12 39  1  0  0  0  0
 12 40  1  0  0  0  0
 13 17  1  0  0  0  0
 13 41  1  0  0  0  0
 13 42  1  0  0  0  0
 14 16  1  0  0  0  0
 14 26  1  6  0  0  0
 14 43  1  0  0  0  0
 15 21  1  0  0  0  0
 15 27  1  6  0  0  0
 15 44  1  0  0  0  0
 16 45  1  0  0  0  0
 16 46  1  0  0  0  0
 17 47  1  0  0  0  0
 18 48  1  0  0  0  0
 18 49  1  0  0  0  0
 18 50  1  0  0  0  0
 19 23  1  0  0  0  0
 19 51  1  0  0  0  0
 19 52  1  0  0  0  0
 20 53  1  0  0  0  0
 20 54  1  0  0  0  0
 20 55  1  0  0  0  0
 21 23  1  0  0  0  0
 21 28  1  1  0  0  0
 21 56  1  0  0  0  0
 22 29  1  0  0  0  0
 22 57  1  0  0  0  0
 22 58  1  0  0  0  0
 23 59  1  0  0  0  0
 23 60  1  0  0  0  0
 24 61  1  0  0  0  0
 24 62  1  0  0  0  0
 24 63  1  0  0  0  0
 25 64  1  0  0  0  0
 25 65  1  0  0  0  0
 25 66  1  0  0  0  0
 26 30  1  0  0  0  0
 26 31  2  0  0  0  0
 27 67  1  0  0  0  0
 27 68  1  0  0  0  0
 27 69  1  0  0  0  0
 28 70  1  0  0  0  0
 28 71  1  0  0  0  0
 28 72  1  0  0  0  0
 29 32  1  0  0  0  0
 29 73  1  0  0  0  0
 29 74  1  0  0  0  0
 30 75  1  0  0  0  0
 30 76  1  0  0  0  0
 30 77  1  0  0  0  0
 31 78  1  0  0  0  0
 31 79  1  0  0  0  0
M  END
> <PUBCHEM_COMPOUND_CID>
12315005

> <PUBCHEM_COMPOUND_CANONICALIZED>
1

> <PUBCHEM_CACTVS_COMPLEXITY>
825

> <PUBCHEM_CACTVS_HBOND_ACCEPTOR>
2

> <PUBCHEM_CACTVS_HBOND_DONOR>
1

> <PUBCHEM_CACTVS_ROTATABLE_BOND>
4

> <PUBCHEM_CACTVS_SUBSKEYS>
AAADcfB4MAAAAAAAAAAAAAAAAAAAAAAAAAAwYMEAAAAAAADAAAAAGgAACAAADwCAgAACCAAAAgCIAiDSCAAAAAAgAAAACAEAAAgAABIAAQAAQAAEgAAIAAOIyPCPgAAAAAAAAACAAAQAACAAAAAAAAAAAA==

> <PUBCHEM_IUPAC_OPENEYE_NAME>
3-[(1S,2S,4aR,4bS,6aR,9R,10S,10aR,12aR)-2-isopropenyl-1,4a,4b,6a,9,10-hexamethyl-2,3,4,5,6,7,8,9,10,10a,12,12a-dodecahydrochrysen-1-yl]propanoic acid

> <PUBCHEM_IUPAC_CAS_NAME>
3-[(1S,2S,4aR,4bS,6aR,9R,10S,10aR,12aR)-1,4a,4b,6a,9,10-hexamethyl-2-(1-methylethenyl)-2,3,4,5,6,7,8,9,10,10a,12,12a-dodecahydrochrysen-1-yl]propanoic acid

> <PUBCHEM_IUPAC_NAME_MARKUP>
3-[(1<I>S</I>,2<I>S</I>,4<I>a</I><I>R</I>,4<I>b</I><I>S</I>,6<I>a</I><I>R</I>,9<I>R</I>,10<I>S</I>,10<I>a</I><I>R</I>,12<I>a</I><I>R</I>)-1,4<I>a</I>,4<I>b</I>,6<I>a</I>,9,10-hexamethyl-2-prop-1-en-2-yl-2,3,4,5,6,7,8,9,10,10<I>a</I>,12,12<I>a</I>-dodecahydrochrysen-1-yl]propanoic acid

> <PUBCHEM_IUPAC_NAME>
3-[(1S,2S,4aR,4bS,6aR,9R,10S,10aR,12aR)-1,4a,4b,6a,9,10-hexamethyl-2-prop-1-en-2-yl-2,3,4,5,6,7,8,9,10,10a,12,12a-dodecahydrochrysen-1-yl]propanoic acid

> <PUBCHEM_IUPAC_SYSTEMATIC_NAME>
3-[(1S,2S,4aR,4bS,6aR,9R,10S,10aR,12aR)-1,4a,4b,6a,9,10-hexamethyl-2-prop-1-en-2-yl-2,3,4,5,6,7,8,9,10,10a,12,12a-dodecahydrochrysen-1-yl]propanoic acid

> <PUBCHEM_IUPAC_TRADITIONAL_NAME>
3-[(1S,2S,4aR,4bS,6aR,9R,10S,10aR,12aR)-2-isopropenyl-1,4a,4b,6a,9,10-hexamethyl-2,3,4,5,6,7,8,9,10,10a,12,12a-dodecahydrochrysen-1-yl]propionic acid

> <PUBCHEM_IUPAC_INCHI>
InChI=1S/C30H48O2/c1-19(2)22-12-16-30(8)24(28(22,6)15-13-25(31)32)10-9-23-26-21(4)20(3)11-14-27(26,5)17-18-29(23,30)7/h9,20-22,24,26H,1,10-18H2,2-8H3,(H,31,32)/t20-,21+,22+,24-,26+,27-,28+,29-,30-/m1/s1

> <PUBCHEM_IUPAC_INCHIKEY>
RPPYCVULPFKBOG-CSHKLQQTSA-N

> <PUBCHEM_XLOGP3_AA>
9.1

> <PUBCHEM_EXACT_MASS>
440.365430770

> <PUBCHEM_MOLECULAR_FORMULA>
C30H48O2

> <PUBCHEM_MOLECULAR_WEIGHT>
440.7

> <PUBCHEM_OPENEYE_CAN_SMILES>
CC1CCC2(CCC3(C(=CCC4C3(CCC(C4(C)CCC(=O)O)C(=C)C)C)C2C1C)C)C

> <PUBCHEM_OPENEYE_ISO_SMILES>
C[C@@H]1CC[C@@]2(CC[C@@]3(C(=CC[C@H]4[C@]3(CC[C@H]([C@]4(C)CCC(=O)O)C(=C)C)C)[C@@H]2[C@H]1C)C)C

> <PUBCHEM_CACTVS_TPSA>
37.3

> <PUBCHEM_MONOISOTOPIC_WEIGHT>
440.365430770

> <PUBCHEM_TOTAL_CHARGE>
0

> <PUBCHEM_HEAVY_ATOM_COUNT>
32

> <PUBCHEM_ATOM_DEF_STEREO_COUNT>
9

> <PUBCHEM_ATOM_UDEF_STEREO_COUNT>
0

> <PUBCHEM_BOND_DEF_STEREO_COUNT>
0

> <PUBCHEM_BOND_UDEF_STEREO_COUNT>
0

> <PUBCHEM_ISOTOPIC_ATOM_COUNT>
0

> <PUBCHEM_COMPONENT_COUNT>
1

> <PUBCHEM_CACTVS_TAUTO_COUNT>
1

> <PUBCHEM_COORDINATE_TYPE>
1
5
255

> <PUBCHEM_BONDANNOTATIONS>
14  26  6
15  27  6
21  28  5
3  18  6
4  20  5
5  33  5
6  34  6
7  24  6
8  25  6

$$$$
