124219
  -OEChem-10012202192D

 37 39  0     0  0  0  0  0  0999 V2000
    3.9061    1.5000    0.0000 O   0  0  0  0  0  0  0  0  0  0  0  0
    7.3981   -0.5346    0.0000 O   0  0  0  0  0  0  0  0  0  0  0  0
    6.5320   -2.0346    0.0000 O   0  0  0  0  0  0  0  0  0  0  0  0
    4.8000   -2.0346    0.0000 O   0  0  0  0  0  0  0  0  0  0  0  0
    3.0000    0.9862    0.0000 C   0  0  0  0  0  0  0  0  0  0  0  0
    4.8000    0.9654    0.0000 C   0  0  0  0  0  0  0  0  0  0  0  0
    4.8000   -0.0346    0.0000 C   0  0  0  0  0  0  0  0  0  0  0  0
    5.6660    1.4654    0.0000 C   0  0  0  0  0  0  0  0  0  0  0  0
    3.0000   -0.0554    0.0000 C   0  0  0  0  0  0  0  0  0  0  0  0
    3.9061   -0.5693    0.0000 C   0  0  0  0  0  0  0  0  0  0  0  0
    5.6660   -0.5346    0.0000 C   0  0  0  0  0  0  0  0  0  0  0  0
    6.5320    0.9654    0.0000 C   0  0  0  0  0  0  0  0  0  0  0  0
    2.0000    0.9900    0.0000 C   0  0  0  0  0  0  0  0  0  0  0  0
    2.5033    1.8541    0.0000 C   0  0  0  0  0  0  0  0  0  0  0  0
    6.5320   -0.0346    0.0000 C   0  0  0  0  0  0  0  0  0  0  0  0
    5.6500    2.5069    0.0000 C   0  0  0  0  0  0  0  0  0  0  0  0
    7.4420    1.4722    0.0000 C   0  0  0  0  0  0  0  0  0  0  0  0
    5.6660   -1.5346    0.0000 C   0  0  0  0  0  0  0  0  0  0  0  0
    6.5480    3.0346    0.0000 C   0  0  0  0  0  0  0  0  0  0  0  0
    7.4501    2.5138    0.0000 C   0  0  0  0  0  0  0  0  0  0  0  0
    6.5320   -3.0346    0.0000 C   0  0  0  0  0  0  0  0  0  0  0  0
    2.4643   -0.3675    0.0000 H   0  0  0  0  0  0  0  0  0  0  0  0
    3.9132   -1.1892    0.0000 H   0  0  0  0  0  0  0  0  0  0  0  0
    2.0024    1.6100    0.0000 H   0  0  0  0  0  0  0  0  0  0  0  0
    1.3800    0.9924    0.0000 H   0  0  0  0  0  0  0  0  0  0  0  0
    1.9976    0.3700    0.0000 H   0  0  0  0  0  0  0  0  0  0  0  0
    3.0415    2.1621    0.0000 H   0  0  0  0  0  0  0  0  0  0  0  0
    2.1954    2.3923    0.0000 H   0  0  0  0  0  0  0  0  0  0  0  0
    1.9652    1.5462    0.0000 H   0  0  0  0  0  0  0  0  0  0  0  0
    5.1095    2.8106    0.0000 H   0  0  0  0  0  0  0  0  0  0  0  0
    7.9754    1.1560    0.0000 H   0  0  0  0  0  0  0  0  0  0  0  0
    6.5456    3.6546    0.0000 H   0  0  0  0  0  0  0  0  0  0  0  0
    7.9882    2.8217    0.0000 H   0  0  0  0  0  0  0  0  0  0  0  0
    7.9350   -0.2246    0.0000 H   0  0  0  0  0  0  0  0  0  0  0  0
    5.9120   -3.0346    0.0000 H   0  0  0  0  0  0  0  0  0  0  0  0
    6.5320   -3.6546    0.0000 H   0  0  0  0  0  0  0  0  0  0  0  0
    7.1520   -3.0346    0.0000 H   0  0  0  0  0  0  0  0  0  0  0  0
  1  5  1  0  0  0  0
  1  6  1  0  0  0  0
  2 15  1  0  0  0  0
  2 34  1  0  0  0  0
  3 18  1  0  0  0  0
  3 21  1  0  0  0  0
  4 18  2  0  0  0  0
  5  9  1  0  0  0  0
  5 13  1  0  0  0  0
  5 14  1  0  0  0  0
  6  7  2  0  0  0  0
  6  8  1  0  0  0  0
  7 10  1  0  0  0  0
  7 11  1  0  0  0  0
  8 12  1  0  0  0  0
  8 16  2  0  0  0  0
  9 10  2  0  0  0  0
  9 22  1  0  0  0  0
 10 23  1  0  0  0  0
 11 15  2  0  0  0  0
 11 18  1  0  0  0  0
 12 15  1  0  0  0  0
 12 17  2  0  0  0  0
 13 24  1  0  0  0  0
 13 25  1  0  0  0  0
 13 26  1  0  0  0  0
 14 27  1  0  0  0  0
 14 28  1  0  0  0  0
 14 29  1  0  0  0  0
 16 19  1  0  0  0  0
 16 30  1  0  0  0  0
 17 20  1  0  0  0  0
 17 31  1  0  0  0  0
 19 20  2  0  0  0  0
 19 32  1  0  0  0  0
 20 33  1  0  0  0  0
 21 35  1  0  0  0  0
 21 36  1  0  0  0  0
 21 37  1  0  0  0  0
M  END
> <PUBCHEM_COMPOUND_CID>
124219

> <PUBCHEM_COMPOUND_CANONICALIZED>
1

> <PUBCHEM_CACTVS_COMPLEXITY>
442

> <PUBCHEM_CACTVS_HBOND_ACCEPTOR>
4

> <PUBCHEM_CACTVS_HBOND_DONOR>
1

> <PUBCHEM_CACTVS_ROTATABLE_BOND>
2

> <PUBCHEM_CACTVS_SUBSKEYS>
AAADceB4OAAAAAAAAAAAAAAAAAAAAAAAAAAwYIAAAAAAAADBUAAAGgAACAAADESAmAIyDsAABgCIAiDSCAACCAAkIAAIiAEECMgMJzaGNRqCeWCl4BEIuQfKyPCOwQADAAAYAACCAAYAADAAAAAAAAAAAA==

> <PUBCHEM_IUPAC_OPENEYE_NAME>
methyl 6-hydroxy-2,2-dimethyl-benzo[h]chromene-5-carboxylate

> <PUBCHEM_IUPAC_CAS_NAME>
6-hydroxy-2,2-dimethyl-5-benzo[h][1]benzopyrancarboxylic acid methyl ester

> <PUBCHEM_IUPAC_NAME_MARKUP>
methyl 6-hydroxy-2,2-dimethylbenzo[h]chromene-5-carboxylate

> <PUBCHEM_IUPAC_NAME>
methyl 6-hydroxy-2,2-dimethylbenzo[h]chromene-5-carboxylate

> <PUBCHEM_IUPAC_SYSTEMATIC_NAME>
methyl 2,2-dimethyl-6-oxidanyl-benzo[h]chromene-5-carboxylate

> <PUBCHEM_IUPAC_TRADITIONAL_NAME>
6-hydroxy-2,2-dimethyl-benzo[h]chromene-5-carboxylic acid methyl ester

> <PUBCHEM_IUPAC_INCHI>
InChI=1S/C17H16O4/c1-17(2)9-8-12-13(16(19)20-3)14(18)10-6-4-5-7-11(10)15(12)21-17/h4-9,18H,1-3H3

> <PUBCHEM_IUPAC_INCHIKEY>
VLGATXOTCNBWIT-UHFFFAOYSA-N

> <PUBCHEM_XLOGP3_AA>
4.1

> <PUBCHEM_EXACT_MASS>
284.10485899

> <PUBCHEM_MOLECULAR_FORMULA>
C17H16O4

> <PUBCHEM_MOLECULAR_WEIGHT>
284.31

> <PUBCHEM_OPENEYE_CAN_SMILES>
CC1(C=CC2=C(O1)C3=CC=CC=C3C(=C2C(=O)OC)O)C

> <PUBCHEM_OPENEYE_ISO_SMILES>
CC1(C=CC2=C(O1)C3=CC=CC=C3C(=C2C(=O)OC)O)C

> <PUBCHEM_CACTVS_TPSA>
55.8

> <PUBCHEM_MONOISOTOPIC_WEIGHT>
284.10485899

> <PUBCHEM_TOTAL_CHARGE>
0

> <PUBCHEM_HEAVY_ATOM_COUNT>
21

> <PUBCHEM_ATOM_DEF_STEREO_COUNT>
0

> <PUBCHEM_ATOM_UDEF_STEREO_COUNT>
0

> <PUBCHEM_BOND_DEF_STEREO_COUNT>
0

> <PUBCHEM_BOND_UDEF_STEREO_COUNT>
0

> <PUBCHEM_ISOTOPIC_ATOM_COUNT>
0

> <PUBCHEM_COMPONENT_COUNT>
1

> <PUBCHEM_CACTVS_TAUTO_COUNT>
3

> <PUBCHEM_COORDINATE_TYPE>
1
5
255

> <PUBCHEM_BONDANNOTATIONS>
11  15  8
12  15  8
12  17  8
16  19  8
17  20  8
19  20  8
6  7  8
6  8  8
7  11  8
8  12  8
8  16  8

$$$$
