135274444
  -OEChem-10012202532D

  0  0  0     0  0  0  0  0  0999 V2000
M  END
> <PUBCHEM_SUBSTANCE_ID>
135274444

> <PUBCHEM_SUBSTANCE_VERSION>
7

> <PUBCHEM_EXT_DATASOURCE_NAME>
ChemIDplus

> <PUBCHEM_EXT_DATASOURCE_REGID>
0008001216

> <PUBCHEM_SUBSTANCE_COMMENT>
[Related Registry Number] 69669-39-2 (potassium-salt)
TSCA UVCB
[Other Registry Number] 84776-03-4
[Other Registry Number] 68309-82-0
3W1JG795YI
0008001216

> <PUBCHEM_SUBSTANCE_SYNONYM>
3W1JG795YI
8001-21-6
Helianthus annua injection
Sunflower pollen
Extract of sunflower
Extract of sunflower seeds
Helianthus annuus extract
Oils, sunflower seed
Sunflower extract
Sunflower seed extract
Sunflower seed oil
Sunflower oil
Sunflower seed oil [Oil, edible]
EINECS 232-273-9
Oleum helianthi
Solvent sunflower oil
Sunflower seed
Helianthus annuus
Helianthus annuus pollen
Sunflower (Helianthus annuus) seed oil
UNII-3W1JG795YI

> <PUBCHEM_GENERIC_REGISTRY_NAME>
8001-21-6

> <PUBCHEM_XREF_EXT_ID>
0008001216

> <PUBCHEM_EXT_DATASOURCE_URL>
https://chem.nlm.nih.gov/chemidplus/

> <PUBCHEM_EXT_SUBSTANCE_URL>
https://chem.nlm.nih.gov/chemidplus/id/0008001216

$$$$
