135278928
  -OEChem-10012202532D

  0  0  0     0  0  0  0  0  0999 V2000
M  END
> <PUBCHEM_SUBSTANCE_ID>
135278928

> <PUBCHEM_SUBSTANCE_VERSION>
4

> <PUBCHEM_EXT_DATASOURCE_NAME>
ChemIDplus

> <PUBCHEM_EXT_DATASOURCE_REGID>
0091080056

> <PUBCHEM_SUBSTANCE_COMMENT>
0091080056

> <PUBCHEM_SUBSTANCE_SYNONYM>
91080-05-6
Protein hydrolyzates, spinal cord
EINECS 293-497-0

> <PUBCHEM_GENERIC_REGISTRY_NAME>
91080-05-6

> <PUBCHEM_XREF_EXT_ID>
0091080056

> <PUBCHEM_EXT_DATASOURCE_URL>
https://chem.nlm.nih.gov/chemidplus/

> <PUBCHEM_EXT_SUBSTANCE_URL>
https://chem.nlm.nih.gov/chemidplus/id/0091080056

$$$$
