135299859
  -OEChem-10012202532D

  0  0  0     0  0  0  0  0  0999 V2000
M  END
> <PUBCHEM_SUBSTANCE_ID>
135299859

> <PUBCHEM_SUBSTANCE_VERSION>
4

> <PUBCHEM_EXT_DATASOURCE_NAME>
ChemIDplus

> <PUBCHEM_EXT_DATASOURCE_REGID>
0009054891

> <PUBCHEM_SUBSTANCE_COMMENT>
Free Radical Scavengers
Antioxidants
W2T4YRA9AD
0009054891

> <PUBCHEM_SUBSTANCE_SYNONYM>
W2T4YRA9AD
9054-89-1
Superoxide Dismutase-1
Superoxide dismutase
Dismutase, superoxide
Copper-zinc superoxide dismutase
Cu/Zn-Superoxide dismutase
EINECS 232-943-0
Superoxide dismutase, copper-zinc
Superoxide dismutase, Cu-Zn
UNII-W2T4YRA9AD
Extramel

> <PUBCHEM_GENERIC_REGISTRY_NAME>
9054-89-1

> <PUBCHEM_XREF_EXT_ID>
0009054891

> <PUBCHEM_EXT_DATASOURCE_URL>
https://chem.nlm.nih.gov/chemidplus/

> <PUBCHEM_EXT_SUBSTANCE_URL>
https://chem.nlm.nih.gov/chemidplus/id/0009054891

$$$$
