135347578
  -OEChem-10012202532D

  0  0  0     0  0  0  0  0  0999 V2000
M  END
> <PUBCHEM_SUBSTANCE_ID>
135347578

> <PUBCHEM_SUBSTANCE_VERSION>
4

> <PUBCHEM_EXT_DATASOURCE_NAME>
ChemIDplus

> <PUBCHEM_EXT_DATASOURCE_REGID>
0100209425

> <PUBCHEM_SUBSTANCE_COMMENT>
0100209425

> <PUBCHEM_SUBSTANCE_SYNONYM>
100209-42-5
Protein hydrolyzates, cottonseed
EINECS 309-350-1

> <PUBCHEM_GENERIC_REGISTRY_NAME>
100209-42-5

> <PUBCHEM_XREF_EXT_ID>
0100209425

> <PUBCHEM_EXT_DATASOURCE_URL>
https://chem.nlm.nih.gov/chemidplus/

> <PUBCHEM_EXT_SUBSTANCE_URL>
https://chem.nlm.nih.gov/chemidplus/id/0100209425

$$$$
