13606036
  -OEChem-10012202122D

 41 43  0     1  0  0  0  0  0999 V2000
    6.0290   -0.9226    0.0000 O   0  0  0  0  0  0  0  0  0  0  0  0
    2.5369    1.1121    0.0000 O   0  0  0  0  0  0  0  0  0  0  0  0
    2.5369   -0.8879    0.0000 O   0  0  0  0  0  0  0  0  0  0  0  0
    4.2690    2.1121    0.0000 O   0  0  0  0  0  0  0  0  0  0  0  0
    4.2690   -1.8879    0.0000 O   0  0  0  0  0  0  0  0  0  0  0  0
    6.0174    2.1467    0.0000 O   0  0  0  0  0  0  0  0  0  0  0  0
    3.4030    0.6121    0.0000 C   0  0  1  0  0  0  0  0  0  0  0  0
    3.4030   -0.3879    0.0000 C   0  0  2  0  0  0  0  0  0  0  0  0
    4.2690    1.1121    0.0000 C   0  0  2  0  0  0  0  0  0  0  0  0
    4.2690   -0.8879    0.0000 C   0  0  1  0  0  0  0  0  0  0  0  0
    5.1350    0.6121    0.0000 C   0  0  0  0  0  0  0  0  0  0  0  0
    5.1350   -0.3879    0.0000 C   0  0  0  0  0  0  0  0  0  0  0  0
    6.0290    1.1467    0.0000 C   0  0  0  0  0  0  0  0  0  0  0  0
    6.9350   -0.4087    0.0000 C   0  0  0  0  0  0  0  0  0  0  0  0
    6.9350    0.6329    0.0000 C   0  0  0  0  0  0  0  0  0  0  0  0
    7.7991   -0.9121    0.0000 C   0  0  0  0  0  0  0  0  0  0  0  0
    8.6671   -0.4154    0.0000 C   0  0  0  0  0  0  0  0  0  0  0  0
    9.5312   -0.9188    0.0000 C   0  0  0  0  0  0  0  0  0  0  0  0
    9.5273   -1.9187    0.0000 C   0  0  0  0  0  0  0  0  0  0  0  0
   10.3991   -0.4221    0.0000 C   0  0  0  0  0  0  0  0  0  0  0  0
   10.3914   -2.4221    0.0000 C   0  0  0  0  0  0  0  0  0  0  0  0
   11.2632   -0.9254    0.0000 C   0  0  0  0  0  0  0  0  0  0  0  0
   11.2593   -1.9254    0.0000 C   0  0  0  0  0  0  0  0  0  0  0  0
    2.8660    0.3021    0.0000 H   0  0  0  0  0  0  0  0  0  0  0  0
    3.4030   -1.0079    0.0000 H   0  0  0  0  0  0  0  0  0  0  0  0
    4.8059    1.4221    0.0000 H   0  0  0  0  0  0  0  0  0  0  0  0
    4.8059   -1.1979    0.0000 H   0  0  0  0  0  0  0  0  0  0  0  0
    7.4708    0.9450    0.0000 H   0  0  0  0  0  0  0  0  0  0  0  0
    7.3988   -1.3855    0.0000 H   0  0  0  0  0  0  0  0  0  0  0  0
    8.1958   -1.3886    0.0000 H   0  0  0  0  0  0  0  0  0  0  0  0
    2.0000    0.8021    0.0000 H   0  0  0  0  0  0  0  0  0  0  0  0
    2.5369   -1.5079    0.0000 H   0  0  0  0  0  0  0  0  0  0  0  0
    3.7320    2.4221    0.0000 H   0  0  0  0  0  0  0  0  0  0  0  0
    3.7320   -2.1979    0.0000 H   0  0  0  0  0  0  0  0  0  0  0  0
    9.0674    0.0580    0.0000 H   0  0  0  0  0  0  0  0  0  0  0  0
    8.2704    0.0611    0.0000 H   0  0  0  0  0  0  0  0  0  0  0  0
    8.9892   -2.2267    0.0000 H   0  0  0  0  0  0  0  0  0  0  0  0
   10.4015    0.1979    0.0000 H   0  0  0  0  0  0  0  0  0  0  0  0
   10.3890   -3.0421    0.0000 H   0  0  0  0  0  0  0  0  0  0  0  0
   11.8013   -0.6175    0.0000 H   0  0  0  0  0  0  0  0  0  0  0  0
   11.7951   -2.2375    0.0000 H   0  0  0  0  0  0  0  0  0  0  0  0
  1 12  1  0  0  0  0
  1 14  1  0  0  0  0
  7  2  1  6  0  0  0
  2 31  1  0  0  0  0
  8  3  1  6  0  0  0
  3 32  1  0  0  0  0
  9  4  1  1  0  0  0
  4 33  1  0  0  0  0
 10  5  1  1  0  0  0
  5 34  1  0  0  0  0
  6 13  2  0  0  0  0
  7  8  1  0  0  0  0
  7  9  1  0  0  0  0
  7 24  1  0  0  0  0
  8 10  1  0  0  0  0
  8 25  1  0  0  0  0
  9 11  1  0  0  0  0
  9 26  1  0  0  0  0
 10 12  1  0  0  0  0
 10 27  1  0  0  0  0
 11 12  2  0  0  0  0
 11 13  1  0  0  0  0
 13 15  1  0  0  0  0
 14 15  2  0  0  0  0
 14 16  1  0  0  0  0
 15 28  1  0  0  0  0
 16 17  1  0  0  0  0
 16 29  1  0  0  0  0
 16 30  1  0  0  0  0
 17 18  1  0  0  0  0
 17 35  1  0  0  0  0
 17 36  1  0  0  0  0
 18 19  2  0  0  0  0
 18 20  1  0  0  0  0
 19 21  1  0  0  0  0
 19 37  1  0  0  0  0
 20 22  2  0  0  0  0
 20 38  1  0  0  0  0
 21 23  2  0  0  0  0
 21 39  1  0  0  0  0
 22 23  1  0  0  0  0
 22 40  1  0  0  0  0
 23 41  1  0  0  0  0
M  END
> <PUBCHEM_COMPOUND_CID>
13606036

> <PUBCHEM_COMPOUND_CANONICALIZED>
1

> <PUBCHEM_CACTVS_COMPLEXITY>
531

> <PUBCHEM_CACTVS_HBOND_ACCEPTOR>
6

> <PUBCHEM_CACTVS_HBOND_DONOR>
4

> <PUBCHEM_CACTVS_ROTATABLE_BOND>
3

> <PUBCHEM_CACTVS_SUBSKEYS>
AAADceB4OAAAAAAAAAAAAAAAAAAAAAAAAAAwQIAAAAAAAACBAAAAGgAACAAADBSgmAIwAIAABgCIAqBSAAACCAAgIAAIiAEAAMgJNDaAERCCcAAl4AALmQfK7KzOAAAAAAAAAAAAAAAAAAAAAAAAAAAAAA==

> <PUBCHEM_IUPAC_OPENEYE_NAME>
(5S,6R,7R,8S)-5,6,7,8-tetrahydroxy-2-(2-phenylethyl)-5,6,7,8-tetrahydrochromen-4-one

> <PUBCHEM_IUPAC_CAS_NAME>
(5S,6R,7R,8S)-5,6,7,8-tetrahydroxy-2-(2-phenylethyl)-5,6,7,8-tetrahydro-1-benzopyran-4-one

> <PUBCHEM_IUPAC_NAME_MARKUP>
(5<I>S</I>,6<I>R</I>,7<I>R</I>,8<I>S</I>)-5,6,7,8-tetrahydroxy-2-(2-phenylethyl)-5,6,7,8-tetrahydrochromen-4-one

> <PUBCHEM_IUPAC_NAME>
(5S,6R,7R,8S)-5,6,7,8-tetrahydroxy-2-(2-phenylethyl)-5,6,7,8-tetrahydrochromen-4-one

> <PUBCHEM_IUPAC_SYSTEMATIC_NAME>
(5S,6R,7R,8S)-5,6,7,8-tetrakis(oxidanyl)-2-(2-phenylethyl)-5,6,7,8-tetrahydrochromen-4-one

> <PUBCHEM_IUPAC_TRADITIONAL_NAME>
(5S,6R,7R,8S)-5,6,7,8-tetrahydroxy-2-phenethyl-5,6,7,8-tetrahydrochromen-4-one

> <PUBCHEM_IUPAC_INCHI>
InChI=1S/C17H18O6/c18-11-8-10(7-6-9-4-2-1-3-5-9)23-17-12(11)13(19)14(20)15(21)16(17)22/h1-5,8,13-16,19-22H,6-7H2/t13-,14+,15+,16-/m0/s1

> <PUBCHEM_IUPAC_INCHIKEY>
CWMIROLCTHMEEO-JJXSEGSLSA-N

> <PUBCHEM_XLOGP3_AA>
-0.8

> <PUBCHEM_EXACT_MASS>
318.11033829

> <PUBCHEM_MOLECULAR_FORMULA>
C17H18O6

> <PUBCHEM_MOLECULAR_WEIGHT>
318.32

> <PUBCHEM_OPENEYE_CAN_SMILES>
C1=CC=C(C=C1)CCC2=CC(=O)C3=C(O2)C(C(C(C3O)O)O)O

> <PUBCHEM_OPENEYE_ISO_SMILES>
C1=CC=C(C=C1)CCC2=CC(=O)C3=C(O2)[C@H]([C@@H]([C@@H]([C@H]3O)O)O)O

> <PUBCHEM_CACTVS_TPSA>
107

> <PUBCHEM_MONOISOTOPIC_WEIGHT>
318.11033829

> <PUBCHEM_TOTAL_CHARGE>
0

> <PUBCHEM_HEAVY_ATOM_COUNT>
23

> <PUBCHEM_ATOM_DEF_STEREO_COUNT>
4

> <PUBCHEM_ATOM_UDEF_STEREO_COUNT>
0

> <PUBCHEM_BOND_DEF_STEREO_COUNT>
0

> <PUBCHEM_BOND_UDEF_STEREO_COUNT>
0

> <PUBCHEM_ISOTOPIC_ATOM_COUNT>
0

> <PUBCHEM_COMPONENT_COUNT>
1

> <PUBCHEM_CACTVS_TAUTO_COUNT>
-1

> <PUBCHEM_COORDINATE_TYPE>
1
5
255

> <PUBCHEM_BONDANNOTATIONS>
1  12  8
1  14  8
11  12  8
11  13  8
13  15  8
14  15  8
18  19  8
18  20  8
19  21  8
7  2  6
20  22  8
21  23  8
22  23  8
8  3  6
9  4  5
10  5  5

$$$$
