15736732
  -OEChem-10012202172D

 58 60  0     1  0  0  0  0  0999 V2000
    2.5381   -0.3380    0.0000 O   0  0  0  0  0  0  0  0  0  0  0  0
    2.8184   -3.2801    0.0000 O   0  0  0  0  0  0  0  0  0  0  0  0
    9.3556    1.5466    0.0000 O   0  0  0  0  0  0  0  0  0  0  0  0
    8.3623    3.2824    0.0000 O   0  0  0  0  0  0  0  0  0  0  0  0
    5.2022   -0.8621    0.0000 C   0  0  2  0  0  0  0  0  0  0  0  0
    5.2022   -1.8621    0.0000 C   0  0  1  0  0  0  0  0  0  0  0  0
    6.0682   -0.3621    0.0000 C   0  0  1  0  0  0  0  0  0  0  0  0
    4.3083   -2.3968    0.0000 C   0  0  1  0  0  0  0  0  0  0  0  0
    4.3083   -0.3275    0.0000 C   0  0  0  0  0  0  0  0  0  0  0  0
    6.0682   -2.3621    0.0000 C   0  0  0  0  0  0  0  0  0  0  0  0
    3.4022   -1.8829    0.0000 C   0  0  0  0  0  0  0  0  0  0  0  0
    6.9343   -0.8621    0.0000 C   0  0  0  0  0  0  0  0  0  0  0  0
    3.4022   -0.8413    0.0000 C   0  0  1  0  0  0  0  0  0  0  0  0
    6.0522    0.6794    0.0000 C   0  0  0  0  0  0  0  0  0  0  0  0
    6.9343   -1.8621    0.0000 C   0  0  0  0  0  0  0  0  0  0  0  0
    5.2022    0.1379    0.0000 C   0  0  0  0  0  0  0  0  0  0  0  0
    7.8523    0.6863    0.0000 C   0  0  1  0  0  0  0  0  0  0  0  0
    6.9502    1.2071    0.0000 C   0  0  0  0  0  0  0  0  0  0  0  0
    3.8183   -3.2685    0.0000 C   0  0  0  0  0  0  0  0  0  0  0  0
    4.8183   -3.2570    0.0000 C   0  0  0  0  0  0  0  0  0  0  0  0
    7.8443   -0.3553    0.0000 C   0  0  0  0  0  0  0  0  0  0  0  0
    8.3556    1.5504    0.0000 C   0  0  2  0  0  0  0  0  0  0  0  0
    8.8523    0.6825    0.0000 C   0  0  0  0  0  0  0  0  0  0  0  0
    7.8590    2.4184    0.0000 C   0  0  0  0  0  0  0  0  0  0  0  0
    5.2088   -2.7121    0.0000 H   0  0  0  0  0  0  0  0  0  0  0  0
    6.8011    0.0685    0.0000 H   0  0  0  0  0  0  0  0  0  0  0  0
    4.7129    0.1423    0.0000 H   0  0  0  0  0  0  0  0  0  0  0  0
    3.9147    0.1516    0.0000 H   0  0  0  0  0  0  0  0  0  0  0  0
    5.6697   -2.8371    0.0000 H   0  0  0  0  0  0  0  0  0  0  0  0
    6.4668   -2.8371    0.0000 H   0  0  0  0  0  0  0  0  0  0  0  0
    2.7914   -1.7768    0.0000 H   0  0  0  0  0  0  0  0  0  0  0  0
    3.1932   -2.4666    0.0000 H   0  0  0  0  0  0  0  0  0  0  0  0
    2.8647   -1.1503    0.0000 H   0  0  0  0  0  0  0  0  0  0  0  0
    5.8342    1.2598    0.0000 H   0  0  0  0  0  0  0  0  0  0  0  0
    5.4431    0.5639    0.0000 H   0  0  0  0  0  0  0  0  0  0  0  0
    7.1463   -2.4447    0.0000 H   0  0  0  0  0  0  0  0  0  0  0  0
    7.5449   -1.7545    0.0000 H   0  0  0  0  0  0  0  0  0  0  0  0
    5.8222    0.1379    0.0000 H   0  0  0  0  0  0  0  0  0  0  0  0
    5.2022    0.7579    0.0000 H   0  0  0  0  0  0  0  0  0  0  0  0
    4.5822    0.1379    0.0000 H   0  0  0  0  0  0  0  0  0  0  0  0
    7.3475    1.6831    0.0000 H   0  0  0  0  0  0  0  0  0  0  0  0
    6.5493    1.6800    0.0000 H   0  0  0  0  0  0  0  0  0  0  0  0
    3.7177   -3.8803    0.0000 H   0  0  0  0  0  0  0  0  0  0  0  0
    4.4034   -3.4738    0.0000 H   0  0  0  0  0  0  0  0  0  0  0  0
    4.2850   -3.5732    0.0000 H   0  0  0  0  0  0  0  0  0  0  0  0
    5.1344   -3.7903    0.0000 H   0  0  0  0  0  0  0  0  0  0  0  0
    5.3516   -2.9408    0.0000 H   0  0  0  0  0  0  0  0  0  0  0  0
    8.3776   -0.6715    0.0000 H   0  0  0  0  0  0  0  0  0  0  0  0
    8.6677    2.0862    0.0000 H   0  0  0  0  0  0  0  0  0  0  0  0
    8.8499    0.0625    0.0000 H   0  0  0  0  0  0  0  0  0  0  0  0
    9.4723    0.6801    0.0000 H   0  0  0  0  0  0  0  0  0  0  0  0
    8.8547    1.3025    0.0000 H   0  0  0  0  0  0  0  0  0  0  0  0
    2.0000   -0.6459    0.0000 H   0  0  0  0  0  0  0  0  0  0  0  0
    2.5146   -3.8206    0.0000 H   0  0  0  0  0  0  0  0  0  0  0  0
    7.3856    2.8187    0.0000 H   0  0  0  0  0  0  0  0  0  0  0  0
    7.3825    2.0217    0.0000 H   0  0  0  0  0  0  0  0  0  0  0  0
    9.6677    2.0823    0.0000 H   0  0  0  0  0  0  0  0  0  0  0  0
    8.0544    3.8206    0.0000 H   0  0  0  0  0  0  0  0  0  0  0  0
 13  1  1  1  0  0  0
  1 53  1  0  0  0  0
  2 19  1  0  0  0  0
  2 54  1  0  0  0  0
 22  3  1  6  0  0  0
  3 57  1  0  0  0  0
  4 24  1  0  0  0  0
  4 58  1  0  0  0  0
  5  6  1  0  0  0  0
  5  7  1  0  0  0  0
  5  9  1  0  0  0  0
  5 16  1  6  0  0  0
  6  8  1  0  0  0  0
  6 10  1  0  0  0  0
  6 25  1  1  0  0  0
  7 12  1  0  0  0  0
  7 14  1  0  0  0  0
  7 26  1  1  0  0  0
  8 11  1  0  0  0  0
  8 19  1  0  0  0  0
  8 20  1  1  0  0  0
  9 13  1  0  0  0  0
  9 27  1  0  0  0  0
  9 28  1  0  0  0  0
 10 15  1  0  0  0  0
 10 29  1  0  0  0  0
 10 30  1  0  0  0  0
 11 13  1  0  0  0  0
 11 31  1  0  0  0  0
 11 32  1  0  0  0  0
 12 15  1  0  0  0  0
 12 21  2  0  0  0  0
 13 33  1  0  0  0  0
 14 18  1  0  0  0  0
 14 34  1  0  0  0  0
 14 35  1  0  0  0  0
 15 36  1  0  0  0  0
 15 37  1  0  0  0  0
 16 38  1  0  0  0  0
 16 39  1  0  0  0  0
 16 40  1  0  0  0  0
 17 18  1  0  0  0  0
 17 21  1  0  0  0  0
 17 22  1  0  0  0  0
 17 23  1  1  0  0  0
 18 41  1  0  0  0  0
 18 42  1  0  0  0  0
 19 43  1  0  0  0  0
 19 44  1  0  0  0  0
 20 45  1  0  0  0  0
 20 46  1  0  0  0  0
 20 47  1  0  0  0  0
 21 48  1  0  0  0  0
 22 24  1  0  0  0  0
 22 49  1  0  0  0  0
 23 50  1  0  0  0  0
 23 51  1  0  0  0  0
 23 52  1  0  0  0  0
 24 55  1  0  0  0  0
 24 56  1  0  0  0  0
M  END
> <PUBCHEM_COMPOUND_CID>
15736732

> <PUBCHEM_COMPOUND_CANONICALIZED>
1

> <PUBCHEM_CACTVS_COMPLEXITY>
518

> <PUBCHEM_CACTVS_HBOND_ACCEPTOR>
4

> <PUBCHEM_CACTVS_HBOND_DONOR>
4

> <PUBCHEM_CACTVS_ROTATABLE_BOND>
3

> <PUBCHEM_CACTVS_SUBSKEYS>
AAADcfB4OAAAAAAAAAAAAAAAAAAAAAAAAAAwYIAAAAAAAADAAAAAGgAACAAADxSggAICAAAAAgCAAiBCAAAAAAAgAAAACAAAAAgBEAIAAQAAQAAEwAAJAAPAwPAPgAAAAAAAAABAAAYAACAAAAAAAAAAAA==

> <PUBCHEM_IUPAC_OPENEYE_NAME>
(1R)-1-[(2S,4aR,4bS,6S,8R,8aS)-6-hydroxy-8-(hydroxymethyl)-2,4b,8-trimethyl-4,4a,5,6,7,8a,9,10-octahydro-3H-phenanthren-2-yl]ethane-1,2-diol

> <PUBCHEM_IUPAC_CAS_NAME>
(1R)-1-[(2S,4aR,4bS,6S,8R,8aS)-6-hydroxy-8-(hydroxymethyl)-2,4b,8-trimethyl-4,4a,5,6,7,8a,9,10-octahydro-3H-phenanthren-2-yl]ethane-1,2-diol

> <PUBCHEM_IUPAC_NAME_MARKUP>
(1<I>R</I>)-1-[(2<I>S</I>,4<I>a</I><I>R</I>,4<I>b</I><I>S</I>,6<I>S</I>,8<I>R</I>,8<I>a</I><I>S</I>)-6-hydroxy-8-(hydroxymethyl)-2,4<I>b</I>,8-trimethyl-4,4<I>a</I>,5,6,7,8<I>a</I>,9,10-octahydro-3<I>H</I>-phenanthren-2-yl]ethane-1,2-diol

> <PUBCHEM_IUPAC_NAME>
(1R)-1-[(2S,4aR,4bS,6S,8R,8aS)-6-hydroxy-8-(hydroxymethyl)-2,4b,8-trimethyl-4,4a,5,6,7,8a,9,10-octahydro-3H-phenanthren-2-yl]ethane-1,2-diol

> <PUBCHEM_IUPAC_SYSTEMATIC_NAME>
(1R)-1-[(2S,4aR,4bS,6S,8R,8aS)-8-(hydroxymethyl)-2,4b,8-trimethyl-6-oxidanyl-4,4a,5,6,7,8a,9,10-octahydro-3H-phenanthren-2-yl]ethane-1,2-diol

> <PUBCHEM_IUPAC_TRADITIONAL_NAME>
(1R)-1-[(2S,4aR,4bS,6S,8R,8aS)-6-hydroxy-2,4b,8-trimethyl-8-methylol-4,4a,5,6,7,8a,9,10-octahydro-3H-phenanthren-2-yl]ethane-1,2-diol

> <PUBCHEM_IUPAC_INCHI>
InChI=1S/C20H34O4/c1-18(17(24)11-21)7-6-15-13(8-18)4-5-16-19(2,12-22)9-14(23)10-20(15,16)3/h8,14-17,21-24H,4-7,9-12H2,1-3H3/t14-,15-,16-,17+,18+,19+,20+/m1/s1

> <PUBCHEM_IUPAC_INCHIKEY>
NRYNTARIOIRWAB-JPDRSCFKSA-N

> <PUBCHEM_XLOGP3_AA>
2

> <PUBCHEM_EXACT_MASS>
338.24570956

> <PUBCHEM_MOLECULAR_FORMULA>
C20H34O4

> <PUBCHEM_MOLECULAR_WEIGHT>
338.5

> <PUBCHEM_OPENEYE_CAN_SMILES>
CC1(CCC2C(=C1)CCC3C2(CC(CC3(C)CO)O)C)C(CO)O

> <PUBCHEM_OPENEYE_ISO_SMILES>
C[C@@]1(CC[C@@H]2C(=C1)CC[C@H]3[C@]2(C[C@@H](C[C@@]3(C)CO)O)C)[C@H](CO)O

> <PUBCHEM_CACTVS_TPSA>
80.9

> <PUBCHEM_MONOISOTOPIC_WEIGHT>
338.24570956

> <PUBCHEM_TOTAL_CHARGE>
0

> <PUBCHEM_HEAVY_ATOM_COUNT>
24

> <PUBCHEM_ATOM_DEF_STEREO_COUNT>
7

> <PUBCHEM_ATOM_UDEF_STEREO_COUNT>
0

> <PUBCHEM_BOND_DEF_STEREO_COUNT>
0

> <PUBCHEM_BOND_UDEF_STEREO_COUNT>
0

> <PUBCHEM_ISOTOPIC_ATOM_COUNT>
0

> <PUBCHEM_COMPONENT_COUNT>
1

> <PUBCHEM_CACTVS_TAUTO_COUNT>
1

> <PUBCHEM_COORDINATE_TYPE>
1
5
255

> <PUBCHEM_BONDANNOTATIONS>
13  1  5
17  23  5
22  3  6
5  16  6
6  25  5
7  26  5
8  20  5

$$$$
