160644
  -OEChem-10012202152D

 87 92  0     1  0  0  0  0  0999 V2000
    4.2690    1.9970    0.0000 O   0  0  0  0  0  0  0  0  0  0  0  0
    4.2690    3.9970    0.0000 O   0  0  0  0  0  0  0  0  0  0  0  0
    9.4932   -1.9972    0.0000 O   0  0  0  0  0  0  0  0  0  0  0  0
    9.5163   -3.9971    0.0000 O   0  0  0  0  0  0  0  0  0  0  0  0
    2.5369    0.9970    0.0000 O   0  0  0  0  0  0  0  0  0  0  0  0
   11.1902   -1.0775    0.0000 O   0  0  0  0  0  0  0  0  0  0  0  0
    5.1010   -2.5272    0.0000 N   0  0  3  0  0  0  0  0  0  0  0  0
    8.6671    2.4762    0.0000 N   0  0  3  0  0  0  0  0  0  0  0  0
    6.0010   -2.0030    0.0000 C   0  0  1  0  0  0  0  0  0  0  0  0
    7.7610    1.9624    0.0000 C   0  0  1  0  0  0  0  0  0  0  0  0
    6.8671    2.4970    0.0000 C   0  0  0  0  0  0  0  0  0  0  0  0
    6.9011   -2.5272    0.0000 C   0  0  0  0  0  0  0  0  0  0  0  0
    5.1130   -3.5688    0.0000 C   0  0  0  0  0  0  0  0  0  0  0  0
    8.6671    3.5178    0.0000 C   0  0  0  0  0  0  0  0  0  0  0  0
    7.7610    4.0317    0.0000 C   0  0  0  0  0  0  0  0  0  0  0  0
    6.0250   -4.0721    0.0000 C   0  0  0  0  0  0  0  0  0  0  0  0
    6.8671    3.4970    0.0000 C   0  0  0  0  0  0  0  0  0  0  0  0
    6.0010   -1.0030    0.0000 C   0  0  0  0  0  0  0  0  0  0  0  0
    6.9127   -3.5272    0.0000 C   0  0  0  0  0  0  0  0  0  0  0  0
    7.7494    0.9624    0.0000 C   0  0  0  0  0  0  0  0  0  0  0  0
    6.0010    1.9970    0.0000 C   0  0  0  0  0  0  0  0  0  0  0  0
    5.1350   -0.5030    0.0000 C   0  0  0  0  0  0  0  0  0  0  0  0
    7.7613   -2.0173    0.0000 C   0  0  0  0  0  0  0  0  0  0  0  0
    4.2311   -2.0339    0.0000 C   0  0  0  0  0  0  0  0  0  0  0  0
    9.5312    1.9729    0.0000 C   0  0  0  0  0  0  0  0  0  0  0  0
    6.0010    3.9970    0.0000 C   0  0  0  0  0  0  0  0  0  0  0  0
    7.7844   -4.0171    0.0000 C   0  0  0  0  0  0  0  0  0  0  0  0
    8.6096    0.4525    0.0000 C   0  0  0  0  0  0  0  0  0  0  0  0
    5.1350    2.4970    0.0000 C   0  0  0  0  0  0  0  0  0  0  0  0
    5.1350    3.4970    0.0000 C   0  0  0  0  0  0  0  0  0  0  0  0
    8.6330   -2.5072    0.0000 C   0  0  0  0  0  0  0  0  0  0  0  0
    8.6446   -3.5072    0.0000 C   0  0  0  0  0  0  0  0  0  0  0  0
    5.1350    0.4970    0.0000 C   0  0  0  0  0  0  0  0  0  0  0  0
    4.2690   -1.0030    0.0000 C   0  0  0  0  0  0  0  0  0  0  0  0
    4.2690    0.9970    0.0000 C   0  0  0  0  0  0  0  0  0  0  0  0
    9.4814    0.9424    0.0000 C   0  0  0  0  0  0  0  0  0  0  0  0
    8.5981   -0.5475    0.0000 C   0  0  0  0  0  0  0  0  0  0  0  0
    3.4030    0.4970    0.0000 C   0  0  0  0  0  0  0  0  0  0  0  0
    3.4030   -0.5030    0.0000 C   0  0  0  0  0  0  0  0  0  0  0  0
   10.3416    0.4324    0.0000 C   0  0  0  0  0  0  0  0  0  0  0  0
    9.4582   -1.0574    0.0000 C   0  0  0  0  0  0  0  0  0  0  0  0
   10.3300   -0.5675    0.0000 C   0  0  0  0  0  0  0  0  0  0  0  0
    4.2690    4.9970    0.0000 C   0  0  0  0  0  0  0  0  0  0  0  0
   10.3650   -2.4872    0.0000 C   0  0  0  0  0  0  0  0  0  0  0  0
    9.5279   -4.9970    0.0000 C   0  0  0  0  0  0  0  0  0  0  0  0
    5.4635   -1.6940    0.0000 H   0  0  0  0  0  0  0  0  0  0  0  0
    8.2949    1.6472    0.0000 H   0  0  0  0  0  0  0  0  0  0  0  0
    4.5010   -3.4698    0.0000 H   0  0  0  0  0  0  0  0  0  0  0  0
    4.9107   -4.1549    0.0000 H   0  0  0  0  0  0  0  0  0  0  0  0
    9.2779    3.4118    0.0000 H   0  0  0  0  0  0  0  0  0  0  0  0
    8.8761    4.1015    0.0000 H   0  0  0  0  0  0  0  0  0  0  0  0
    8.1546    4.5107    0.0000 H   0  0  0  0  0  0  0  0  0  0  0  0
    7.3564    4.5015    0.0000 H   0  0  0  0  0  0  0  0  0  0  0  0
    5.6369   -4.5557    0.0000 H   0  0  0  0  0  0  0  0  0  0  0  0
    6.4350   -4.5372    0.0000 H   0  0  0  0  0  0  0  0  0  0  0  0
    6.6116   -1.1106    0.0000 H   0  0  0  0  0  0  0  0  0  0  0  0
    6.2131   -0.4204    0.0000 H   0  0  0  0  0  0  0  0  0  0  0  0
    7.1402    1.0772    0.0000 H   0  0  0  0  0  0  0  0  0  0  0  0
    7.5307    0.3823    0.0000 H   0  0  0  0  0  0  0  0  0  0  0  0
    6.0010    1.3770    0.0000 H   0  0  0  0  0  0  0  0  0  0  0  0
    7.7541   -1.3973    0.0000 H   0  0  0  0  0  0  0  0  0  0  0  0
    4.5370   -1.4946    0.0000 H   0  0  0  0  0  0  0  0  0  0  0  0
    3.6918   -1.7281    0.0000 H   0  0  0  0  0  0  0  0  0  0  0  0
    3.9253   -2.5732    0.0000 H   0  0  0  0  0  0  0  0  0  0  0  0
    9.2191    1.4372    0.0000 H   0  0  0  0  0  0  0  0  0  0  0  0
   10.0669    1.6608    0.0000 H   0  0  0  0  0  0  0  0  0  0  0  0
    9.8432    2.5086    0.0000 H   0  0  0  0  0  0  0  0  0  0  0  0
    6.0010    4.6170    0.0000 H   0  0  0  0  0  0  0  0  0  0  0  0
    7.7916   -4.6371    0.0000 H   0  0  0  0  0  0  0  0  0  0  0  0
    5.6720    0.8070    0.0000 H   0  0  0  0  0  0  0  0  0  0  0  0
    4.2690   -1.6230    0.0000 H   0  0  0  0  0  0  0  0  0  0  0  0
    9.4886    1.5624    0.0000 H   0  0  0  0  0  0  0  0  0  0  0  0
    8.0576   -0.8512    0.0000 H   0  0  0  0  0  0  0  0  0  0  0  0
    2.8660   -0.8130    0.0000 H   0  0  0  0  0  0  0  0  0  0  0  0
   10.8820    0.7362    0.0000 H   0  0  0  0  0  0  0  0  0  0  0  0
    9.4511   -1.6774    0.0000 H   0  0  0  0  0  0  0  0  0  0  0  0
    4.8890    4.9970    0.0000 H   0  0  0  0  0  0  0  0  0  0  0  0
    4.2690    5.6170    0.0000 H   0  0  0  0  0  0  0  0  0  0  0  0
    3.6490    4.9970    0.0000 H   0  0  0  0  0  0  0  0  0  0  0  0
   10.0612   -3.0277    0.0000 H   0  0  0  0  0  0  0  0  0  0  0  0
   10.9055   -2.7910    0.0000 H   0  0  0  0  0  0  0  0  0  0  0  0
   10.6687   -1.9467    0.0000 H   0  0  0  0  0  0  0  0  0  0  0  0
    8.9080   -5.0042    0.0000 H   0  0  0  0  0  0  0  0  0  0  0  0
    9.5351   -5.6170    0.0000 H   0  0  0  0  0  0  0  0  0  0  0  0
   10.1479   -4.9899    0.0000 H   0  0  0  0  0  0  0  0  0  0  0  0
    2.0000    0.6870    0.0000 H   0  0  0  0  0  0  0  0  0  0  0  0
   11.7307   -0.7737    0.0000 H   0  0  0  0  0  0  0  0  0  0  0  0
  1 29  1  0  0  0  0
  1 35  1  0  0  0  0
  2 30  1  0  0  0  0
  2 43  1  0  0  0  0
  3 31  1  0  0  0  0
  3 44  1  0  0  0  0
  4 32  1  0  0  0  0
  4 45  1  0  0  0  0
  5 38  1  0  0  0  0
  5 86  1  0  0  0  0
  6 42  1  0  0  0  0
  6 87  1  0  0  0  0
  7  9  1  0  0  0  0
  7 13  1  0  0  0  0
  7 24  1  0  0  0  0
  8 10  1  0  0  0  0
  8 14  1  0  0  0  0
  8 25  1  0  0  0  0
  9 12  1  0  0  0  0
  9 18  1  6  0  0  0
  9 46  1  0  0  0  0
 10 11  1  0  0  0  0
 10 20  1  6  0  0  0
 10 47  1  0  0  0  0
 11 17  1  0  0  0  0
 11 21  2  0  0  0  0
 12 19  1  0  0  0  0
 12 23  2  0  0  0  0
 13 16  1  0  0  0  0
 13 48  1  0  0  0  0
 13 49  1  0  0  0  0
 14 15  1  0  0  0  0
 14 50  1  0  0  0  0
 14 51  1  0  0  0  0
 15 17  1  0  0  0  0
 15 52  1  0  0  0  0
 15 53  1  0  0  0  0
 16 19  1  0  0  0  0
 16 54  1  0  0  0  0
 16 55  1  0  0  0  0
 17 26  2  0  0  0  0
 18 22  1  0  0  0  0
 18 56  1  0  0  0  0
 18 57  1  0  0  0  0
 19 27  2  0  0  0  0
 20 28  1  0  0  0  0
 20 58  1  0  0  0  0
 20 59  1  0  0  0  0
 21 29  1  0  0  0  0
 21 60  1  0  0  0  0
 22 33  2  0  0  0  0
 22 34  1  0  0  0  0
 23 31  1  0  0  0  0
 23 61  1  0  0  0  0
 24 62  1  0  0  0  0
 24 63  1  0  0  0  0
 24 64  1  0  0  0  0
 25 65  1  0  0  0  0
 25 66  1  0  0  0  0
 25 67  1  0  0  0  0
 26 30  1  0  0  0  0
 26 68  1  0  0  0  0
 27 32  1  0  0  0  0
 27 69  1  0  0  0  0
 28 36  2  0  0  0  0
 28 37  1  0  0  0  0
 29 30  2  0  0  0  0
 31 32  2  0  0  0  0
 33 35  1  0  0  0  0
 33 70  1  0  0  0  0
 34 39  2  0  0  0  0
 34 71  1  0  0  0  0
 35 38  2  0  0  0  0
 36 40  1  0  0  0  0
 36 72  1  0  0  0  0
 37 41  2  0  0  0  0
 37 73  1  0  0  0  0
 38 39  1  0  0  0  0
 39 74  1  0  0  0  0
 40 42  2  0  0  0  0
 40 75  1  0  0  0  0
 41 42  1  0  0  0  0
 41 76  1  0  0  0  0
 43 77  1  0  0  0  0
 43 78  1  0  0  0  0
 43 79  1  0  0  0  0
 44 80  1  0  0  0  0
 44 81  1  0  0  0  0
 44 82  1  0  0  0  0
 45 83  1  0  0  0  0
 45 84  1  0  0  0  0
 45 85  1  0  0  0  0
M  END
> <PUBCHEM_COMPOUND_CID>
160644

> <PUBCHEM_COMPOUND_CANONICALIZED>
1

> <PUBCHEM_CACTVS_COMPLEXITY>
917

> <PUBCHEM_CACTVS_HBOND_ACCEPTOR>
8

> <PUBCHEM_CACTVS_HBOND_DONOR>
2

> <PUBCHEM_CACTVS_ROTATABLE_BOND>
9

> <PUBCHEM_CACTVS_SUBSKEYS>
AAADcfB/OAAAAAAAAAAAAAAAAAAAAAAAAAA8eMGCAAAAAACxVAAAHgAACAAADCzBmAYyBoMABgCAAiBCAACCCAAgIAAIiAAOjIgNJiKGsRuGeCvkwBGLuAew0PMOoAABAAAQQABAAAIAACCAAAAAAAAAAA==

> <PUBCHEM_IUPAC_OPENEYE_NAME>
4-[[(1R)-6,7-dimethoxy-2-methyl-3,4-dihydro-1H-isoquinolin-1-yl]methyl]-2-[[(1R)-1-[(4-hydroxyphenyl)methyl]-6-methoxy-2-methyl-3,4-dihydro-1H-isoquinolin-7-yl]oxy]phenol

> <PUBCHEM_IUPAC_CAS_NAME>
4-[[(1R)-6,7-dimethoxy-2-methyl-3,4-dihydro-1H-isoquinolin-1-yl]methyl]-2-[[(1R)-1-[(4-hydroxyphenyl)methyl]-6-methoxy-2-methyl-3,4-dihydro-1H-isoquinolin-7-yl]oxy]phenol

> <PUBCHEM_IUPAC_NAME_MARKUP>
4-[[(1<I>R</I>)-6,7-dimethoxy-2-methyl-3,4-dihydro-1<I>H</I>-isoquinolin-1-yl]methyl]-2-[[(1<I>R</I>)-1-[(4-hydroxyphenyl)methyl]-6-methoxy-2-methyl-3,4-dihydro-1<I>H</I>-isoquinolin-7-yl]oxy]phenol

> <PUBCHEM_IUPAC_NAME>
4-[[(1R)-6,7-dimethoxy-2-methyl-3,4-dihydro-1H-isoquinolin-1-yl]methyl]-2-[[(1R)-1-[(4-hydroxyphenyl)methyl]-6-methoxy-2-methyl-3,4-dihydro-1H-isoquinolin-7-yl]oxy]phenol

> <PUBCHEM_IUPAC_SYSTEMATIC_NAME>
4-[[(1R)-6,7-dimethoxy-2-methyl-3,4-dihydro-1H-isoquinolin-1-yl]methyl]-2-[[(1R)-1-[(4-hydroxyphenyl)methyl]-6-methoxy-2-methyl-3,4-dihydro-1H-isoquinolin-7-yl]oxy]phenol

> <PUBCHEM_IUPAC_TRADITIONAL_NAME>
4-[[(1R)-6,7-dimethoxy-2-methyl-3,4-dihydro-1H-isoquinolin-1-yl]methyl]-2-[[(1R)-1-(4-hydroxybenzyl)-6-methoxy-2-methyl-3,4-dihydro-1H-isoquinolin-7-yl]oxy]phenol

> <PUBCHEM_IUPAC_INCHI>
InChI=1S/C37H42N2O6/c1-38-14-13-26-20-35(43-4)37(22-29(26)30(38)16-23-6-9-27(40)10-7-23)45-33-18-24(8-11-32(33)41)17-31-28-21-36(44-5)34(42-3)19-25(28)12-15-39(31)2/h6-11,18-22,30-31,40-41H,12-17H2,1-5H3/t30-,31-/m1/s1

> <PUBCHEM_IUPAC_INCHIKEY>
XCUCMLUTCAKSOZ-FIRIVFDPSA-N

> <PUBCHEM_XLOGP3_AA>
6.4

> <PUBCHEM_EXACT_MASS>
610.30428706

> <PUBCHEM_MOLECULAR_FORMULA>
C37H42N2O6

> <PUBCHEM_MOLECULAR_WEIGHT>
610.7

> <PUBCHEM_OPENEYE_CAN_SMILES>
CN1CCC2=CC(=C(C=C2C1CC3=CC=C(C=C3)O)OC4=C(C=CC(=C4)CC5C6=CC(=C(C=C6CCN5C)OC)OC)O)OC

> <PUBCHEM_OPENEYE_ISO_SMILES>
CN1CCC2=CC(=C(C=C2[C@H]1CC3=CC=C(C=C3)O)OC4=C(C=CC(=C4)C[C@@H]5C6=CC(=C(C=C6CCN5C)OC)OC)O)OC

> <PUBCHEM_CACTVS_TPSA>
83.9

> <PUBCHEM_MONOISOTOPIC_WEIGHT>
610.30428706

> <PUBCHEM_TOTAL_CHARGE>
0

> <PUBCHEM_HEAVY_ATOM_COUNT>
45

> <PUBCHEM_ATOM_DEF_STEREO_COUNT>
2

> <PUBCHEM_ATOM_UDEF_STEREO_COUNT>
0

> <PUBCHEM_BOND_DEF_STEREO_COUNT>
0

> <PUBCHEM_BOND_UDEF_STEREO_COUNT>
0

> <PUBCHEM_ISOTOPIC_ATOM_COUNT>
0

> <PUBCHEM_COMPONENT_COUNT>
1

> <PUBCHEM_CACTVS_TAUTO_COUNT>
-1

> <PUBCHEM_COORDINATE_TYPE>
1
5
255

> <PUBCHEM_BONDANNOTATIONS>
10  20  6
11  17  8
11  21  8
12  19  8
12  23  8
17  26  8
19  27  8
21  29  8
22  33  8
22  34  8
23  31  8
26  30  8
27  32  8
28  36  8
28  37  8
29  30  8
31  32  8
33  35  8
34  39  8
35  38  8
36  40  8
37  41  8
38  39  8
40  42  8
41  42  8
9  18  6

$$$$
