162642250
  -OEChem-10012202192D

 79 84  0     1  0  0  0  0  0999 V2000
    6.0538    2.6557    0.0000 O   0  0  0  0  0  0  0  0  0  0  0  0
    2.5357   -0.3894    0.0000 O   0  0  0  0  0  0  0  0  0  0  0  0
    6.1340    0.8565    0.0000 O   0  0  0  0  0  0  0  0  0  0  0  0
    7.0442   -1.9812    0.0000 O   0  0  0  0  0  0  0  0  0  0  0  0
    4.5357    3.6248    0.0000 O   0  0  0  0  0  0  0  0  0  0  0  0
    7.0120    0.1102    0.0000 O   0  0  0  0  0  0  0  0  0  0  0  0
    5.1877    4.1557    0.0000 O   0  0  0  0  0  0  0  0  0  0  0  0
    2.5192   -2.0161    0.0000 O   0  0  0  0  0  0  0  0  0  0  0  0
    6.3334   -5.3190    0.0000 O   0  0  0  0  0  0  0  0  0  0  0  0
    7.8928   -0.4713    0.0000 O   0  0  0  0  0  0  0  0  0  0  0  0
    2.8885    4.1601    0.0000 O   0  0  0  0  0  0  0  0  0  0  0  0
    5.1877    1.1557    0.0000 C   0  0  2  0  0  0  0  0  0  0  0  0
    4.3058   -0.4135    0.0000 C   0  0  2  0  0  0  0  0  0  0  0  0
    5.2038    0.1142    0.0000 C   0  0  2  0  0  0  0  0  0  0  0  0
    4.3217    1.6557    0.0000 C   0  0  2  0  0  0  0  0  0  0  0  0
    4.2974   -1.4985    0.0000 C   0  0  1  0  0  0  0  0  0  0  0  0
    4.3217    2.6557    0.0000 C   0  0  2  0  0  0  0  0  0  0  0  0
    5.2370   -2.0410    0.0000 C   0  0  1  0  0  0  0  0  0  0  0  0
    3.4037    0.1073    0.0000 C   0  0  1  0  0  0  0  0  0  0  0  0
    3.4117    1.1489    0.0000 C   0  0  0  0  0  0  0  0  0  0  0  0
    5.3908    1.5256    0.0000 C   0  0  2  0  0  0  0  0  0  0  0  0
    6.0538    1.6557    0.0000 C   0  0  0  0  0  0  0  0  0  0  0  0
    6.1725   -1.4913    0.0000 C   0  0  2  0  0  0  0  0  0  0  0  0
    6.1557   -0.4064    0.0000 C   0  0  0  0  0  0  0  0  0  0  0  0
    4.7436    2.6466    0.0000 C   0  0  1  0  0  0  0  0  0  0  0  0
    5.4745    2.3213    0.0000 C   0  0  0  0  0  0  0  0  0  0  0  0
    5.0100   -3.0954    0.0000 C   0  0  1  0  0  0  0  0  0  0  0  0
    5.1877    3.1557    0.0000 C   0  0  3  0  0  0  0  0  0  0  0  0
    3.4436   -0.9202    0.0000 C   0  0  0  0  0  0  0  0  0  0  0  0
    3.4977   -2.2223    0.0000 C   0  0  0  0  0  0  0  0  0  0  0  0
    3.9373   -3.2072    0.0000 C   0  0  0  0  0  0  0  0  0  0  0  0
    3.4557    3.1557    0.0000 C   0  0  0  0  0  0  0  0  0  0  0  0
    6.1031   -2.5410    0.0000 C   0  0  0  0  0  0  0  0  0  0  0  0
    5.6779   -3.8397    0.0000 C   0  0  0  0  0  0  0  0  0  0  0  0
    6.6726   -3.7369    0.0000 C   0  0  0  0  0  0  0  0  0  0  0  0
    5.4683   -4.8175    0.0000 C   0  0  0  0  0  0  0  0  0  0  0  0
    7.9044   -1.4712    0.0000 C   0  0  0  0  0  0  0  0  0  0  0  0
    3.8666    4.3679    0.0000 C   0  0  0  0  0  0  0  0  0  0  0  0
    7.0778   -4.6512    0.0000 C   0  0  0  0  0  0  0  0  0  0  0  0
    8.7761   -1.9612    0.0000 C   0  0  0  0  0  0  0  0  0  0  0  0
    4.1756    5.3190    0.0000 C   0  0  0  0  0  0  0  0  0  0  0  0
    5.9316    0.5533    0.0000 H   0  0  0  0  0  0  0  0  0  0  0  0
    3.5856    2.0807    0.0000 H   0  0  0  0  0  0  0  0  0  0  0  0
    3.5218   -1.1508    0.0000 H   0  0  0  0  0  0  0  0  0  0  0  0
    2.8686    0.4204    0.0000 H   0  0  0  0  0  0  0  0  0  0  0  0
    3.2072    1.7342    0.0000 H   0  0  0  0  0  0  0  0  0  0  0  0
    2.8001    1.0475    0.0000 H   0  0  0  0  0  0  0  0  0  0  0  0
    5.9696    1.7478    0.0000 H   0  0  0  0  0  0  0  0  0  0  0  0
    6.2658    1.0731    0.0000 H   0  0  0  0  0  0  0  0  0  0  0  0
    6.6644    1.7634    0.0000 H   0  0  0  0  0  0  0  0  0  0  0  0
    6.7052   -1.1741    0.0000 H   0  0  0  0  0  0  0  0  0  0  0  0
    5.2255    3.0368    0.0000 H   0  0  0  0  0  0  0  0  0  0  0  0
    6.0809    2.1924    0.0000 H   0  0  0  0  0  0  0  0  0  0  0  0
    5.6660    2.9109    0.0000 H   0  0  0  0  0  0  0  0  0  0  0  0
    4.7871   -3.6739    0.0000 H   0  0  0  0  0  0  0  0  0  0  0  0
    4.6508    3.4657    0.0000 H   0  0  0  0  0  0  0  0  0  0  0  0
    3.1295   -0.3857    0.0000 H   0  0  0  0  0  0  0  0  0  0  0  0
    2.9091   -1.2343    0.0000 H   0  0  0  0  0  0  0  0  0  0  0  0
    3.7578   -1.4547    0.0000 H   0  0  0  0  0  0  0  0  0  0  0  0
    3.3477   -3.3990    0.0000 H   0  0  0  0  0  0  0  0  0  0  0  0
    4.0660   -3.8137    0.0000 H   0  0  0  0  0  0  0  0  0  0  0  0
    3.7657    3.6927    0.0000 H   0  0  0  0  0  0  0  0  0  0  0  0
    2.9188    3.4657    0.0000 H   0  0  0  0  0  0  0  0  0  0  0  0
    3.1457    2.6188    0.0000 H   0  0  0  0  0  0  0  0  0  0  0  0
    5.7931   -3.0779    0.0000 H   0  0  0  0  0  0  0  0  0  0  0  0
    6.6400   -2.8510    0.0000 H   0  0  0  0  0  0  0  0  0  0  0  0
    6.4131   -2.0041    0.0000 H   0  0  0  0  0  0  0  0  0  0  0  0
    2.0000   -0.0773    0.0000 H   0  0  0  0  0  0  0  0  0  0  0  0
    6.7236    1.0481    0.0000 H   0  0  0  0  0  0  0  0  0  0  0  0
    5.7247    4.4657    0.0000 H   0  0  0  0  0  0  0  0  0  0  0  0
    6.9835   -3.2005    0.0000 H   0  0  0  0  0  0  0  0  0  0  0  0
    4.9014   -5.0687    0.0000 H   0  0  0  0  0  0  0  0  0  0  0  0
    7.6840   -4.7811    0.0000 H   0  0  0  0  0  0  0  0  0  0  0  0
    8.4724   -2.5017    0.0000 H   0  0  0  0  0  0  0  0  0  0  0  0
    9.3166   -2.2650    0.0000 H   0  0  0  0  0  0  0  0  0  0  0  0
    9.0799   -1.4207    0.0000 H   0  0  0  0  0  0  0  0  0  0  0  0
    4.7652    5.1274    0.0000 H   0  0  0  0  0  0  0  0  0  0  0  0
    4.3672    5.9086    0.0000 H   0  0  0  0  0  0  0  0  0  0  0  0
    3.5859    5.5106    0.0000 H   0  0  0  0  0  0  0  0  0  0  0  0
  1 22  1  0  0  0  0
  1 28  1  0  0  0  0
 19  2  1  6  0  0  0
  2 68  1  0  0  0  0
 21  3  1  6  0  0  0
  3 69  1  0  0  0  0
 23  4  1  6  0  0  0
  4 37  1  0  0  0  0
 25  5  1  6  0  0  0
  5 38  1  0  0  0  0
  6 24  2  0  0  0  0
  7 28  1  0  0  0  0
  7 70  1  0  0  0  0
  8 30  2  0  0  0  0
  9 36  1  0  0  0  0
  9 39  1  0  0  0  0
 10 37  2  0  0  0  0
 11 38  2  0  0  0  0
 12 14  1  0  0  0  0
 12 15  1  0  0  0  0
 12 21  1  0  0  0  0
 12 22  1  1  0  0  0
 13 14  1  0  0  0  0
 13 16  1  0  0  0  0
 13 19  1  0  0  0  0
 13 29  1  1  0  0  0
 14 24  1  0  0  0  0
 14 42  1  6  0  0  0
 15 17  1  0  0  0  0
 15 20  1  0  0  0  0
 15 43  1  6  0  0  0
 16 18  1  0  0  0  0
 16 30  1  0  0  0  0
 16 44  1  6  0  0  0
 17 25  1  0  0  0  0
 17 28  1  0  0  0  0
 17 32  1  6  0  0  0
 18 23  1  0  0  0  0
 18 27  1  0  0  0  0
 18 33  1  6  0  0  0
 19 20  1  0  0  0  0
 19 45  1  0  0  0  0
 20 46  1  0  0  0  0
 20 47  1  0  0  0  0
 21 26  1  0  0  0  0
 21 48  1  0  0  0  0
 22 49  1  0  0  0  0
 22 50  1  0  0  0  0
 23 24  1  0  0  0  0
 23 51  1  0  0  0  0
 25 26  1  0  0  0  0
 25 52  1  0  0  0  0
 26 53  1  0  0  0  0
 26 54  1  0  0  0  0
 27 31  1  0  0  0  0
 27 34  1  6  0  0  0
 27 55  1  0  0  0  0
 28 56  1  0  0  0  0
 29 57  1  0  0  0  0
 29 58  1  0  0  0  0
 29 59  1  0  0  0  0
 30 31  1  0  0  0  0
 31 60  1  0  0  0  0
 31 61  1  0  0  0  0
 32 62  1  0  0  0  0
 32 63  1  0  0  0  0
 32 64  1  0  0  0  0
 33 65  1  0  0  0  0
 33 66  1  0  0  0  0
 33 67  1  0  0  0  0
 34 35  1  0  0  0  0
 34 36  2  0  0  0  0
 35 39  2  0  0  0  0
 35 71  1  0  0  0  0
 36 72  1  0  0  0  0
 37 40  1  0  0  0  0
 38 41  1  0  0  0  0
 39 73  1  0  0  0  0
 40 74  1  0  0  0  0
 40 75  1  0  0  0  0
 40 76  1  0  0  0  0
 41 77  1  0  0  0  0
 41 78  1  0  0  0  0
 41 79  1  0  0  0  0
M  END
> <PUBCHEM_COMPOUND_CID>
162642250

> <PUBCHEM_COMPOUND_CANONICALIZED>
1

> <PUBCHEM_CACTVS_COMPLEXITY>
1170

> <PUBCHEM_CACTVS_HBOND_ACCEPTOR>
11

> <PUBCHEM_CACTVS_HBOND_DONOR>
3

> <PUBCHEM_CACTVS_ROTATABLE_BOND>
5

> <PUBCHEM_CACTVS_SUBSKEYS>
AAADcfB4PAAAAAAAAAAAAAAAAAAAAaIAAAA0YMEAAAASAGDRgAAAGgAACAAADxSwmAMyDIAABkCIAqjSiAICCAAkIAAIiAFGCMgcNhIENQ6CWSClwBEMKYOK7vzvgAAAAAAAAADAAAYQADAAAQAACAAAAA==

> <PUBCHEM_IUPAC_OPENEYE_NAME>
[(1S,2S,4R,5S,6S,9S,10S,11R,13R,14R,18S,20R)-4-acetoxy-6-(3-furyl)-11,15,18-trihydroxy-5,10,14-trimethyl-3,8-dioxo-16-oxapentacyclo[12.3.3.01,13.02,10.05,9]icosan-20-yl] acetate

> <PUBCHEM_IUPAC_CAS_NAME>
acetic acid [(1S,2S,4R,5S,6S,9S,10S,11R,13R,14R,18S,20R)-4-acetyloxy-6-(3-furanyl)-11,15,18-trihydroxy-5,10,14-trimethyl-3,8-dioxo-16-oxapentacyclo[12.3.3.01,13.02,10.05,9]eicosan-20-yl] ester

> <PUBCHEM_IUPAC_NAME_MARKUP>
[(1<I>S</I>,2<I>S</I>,4<I>R</I>,5<I>S</I>,6<I>S</I>,9<I>S</I>,10<I>S</I>,11<I>R</I>,13<I>R</I>,14<I>R</I>,18<I>S</I>,20<I>R</I>)-4-acetyloxy-6-(furan-3-yl)-11,15,18-trihydroxy-5,10,14-trimethyl-3,8-dioxo-16-oxapentacyclo[12.3.3.0<SUP>1,13</SUP>.0<SUP>2,10</SUP>.0<SUP>5,9</SUP>]icosan-20-yl] acetate

> <PUBCHEM_IUPAC_NAME>
[(1S,2S,4R,5S,6S,9S,10S,11R,13R,14R,18S,20R)-4-acetyloxy-6-(furan-3-yl)-11,15,18-trihydroxy-5,10,14-trimethyl-3,8-dioxo-16-oxapentacyclo[12.3.3.01,13.02,10.05,9]icosan-20-yl] acetate

> <PUBCHEM_IUPAC_SYSTEMATIC_NAME>
[(1S,2S,4R,5S,6S,9S,10S,11R,13R,14R,18S,20R)-4-acetyloxy-6-(furan-3-yl)-5,10,14-trimethyl-11,15,18-tris(oxidanyl)-3,8-bis(oxidanylidene)-16-oxapentacyclo[12.3.3.01,13.02,10.05,9]icosan-20-yl] ethanoate

> <PUBCHEM_IUPAC_TRADITIONAL_NAME>
acetic acid [(1S,2S,4R,5S,6S,9S,10S,11R,13R,14R,18S,20R)-4-acetoxy-6-(3-furyl)-11,15,18-trihydroxy-3,8-diketo-5,10,14-trimethyl-16-oxapentacyclo[12.3.3.01,13.02,10.05,9]eicosan-20-yl] ester

> <PUBCHEM_IUPAC_INCHI>
InChI=1S/C30H38O11/c1-13(31)40-21-10-20(35)30-12-39-26(37)28(21,4)18(30)9-19(34)29(5)23-17(33)8-16(15-6-7-38-11-15)27(23,3)25(41-14(2)32)22(36)24(29)30/h6-7,11,16,18-21,23-26,34-35,37H,8-10,12H2,1-5H3/t16-,18-,19+,20-,21+,23+,24-,25-,26?,27-,28+,29-,30+/m0/s1

> <PUBCHEM_IUPAC_INCHIKEY>
GEHGAWHOBGXBGC-MFIPDTIPSA-N

> <PUBCHEM_XLOGP3_AA>
0.5

> <PUBCHEM_EXACT_MASS>
574.24141202

> <PUBCHEM_MOLECULAR_FORMULA>
C30H38O11

> <PUBCHEM_MOLECULAR_WEIGHT>
574.6

> <PUBCHEM_OPENEYE_CAN_SMILES>
CC(=O)OC1CC(C23COC(C1(C2CC(C4(C3C(=O)C(C5(C4C(=O)CC5C6=COC=C6)C)OC(=O)C)C)O)C)O)O

> <PUBCHEM_OPENEYE_ISO_SMILES>
CC(=O)O[C@@H]1C[C@@H]([C@@]23COC([C@@]1([C@@H]2C[C@H]([C@@]4([C@@H]3C(=O)[C@@H]([C@@]5([C@H]4C(=O)C[C@H]5C6=COC=C6)C)OC(=O)C)C)O)C)O)O

> <PUBCHEM_CACTVS_TPSA>
170

> <PUBCHEM_MONOISOTOPIC_WEIGHT>
574.24141202

> <PUBCHEM_TOTAL_CHARGE>
0

> <PUBCHEM_HEAVY_ATOM_COUNT>
41

> <PUBCHEM_ATOM_DEF_STEREO_COUNT>
12

> <PUBCHEM_ATOM_UDEF_STEREO_COUNT>
1

> <PUBCHEM_BOND_DEF_STEREO_COUNT>
0

> <PUBCHEM_BOND_UDEF_STEREO_COUNT>
0

> <PUBCHEM_ISOTOPIC_ATOM_COUNT>
0

> <PUBCHEM_COMPONENT_COUNT>
1

> <PUBCHEM_CACTVS_TAUTO_COUNT>
-1

> <PUBCHEM_COORDINATE_TYPE>
1
5
255

> <PUBCHEM_BONDANNOTATIONS>
12  22  5
13  29  5
14  42  6
15  43  6
16  44  6
17  32  6
18  33  6
19  2  6
27  34  6
21  3  6
34  35  8
34  36  8
35  39  8
23  4  6
25  5  6
28  7  3
9  36  8
9  39  8

$$$$
126939
  -OEChem-10012202192D

 79 84  0     1  0  0  0  0  0999 V2000
    6.0538    2.6557    0.0000 O   0  0  0  0  0  0  0  0  0  0  0  0
    2.5357   -0.3894    0.0000 O   0  0  0  0  0  0  0  0  0  0  0  0
    6.1340    0.8565    0.0000 O   0  0  0  0  0  0  0  0  0  0  0  0
    7.0442   -1.9812    0.0000 O   0  0  0  0  0  0  0  0  0  0  0  0
    4.5357    3.6248    0.0000 O   0  0  0  0  0  0  0  0  0  0  0  0
    7.0120    0.1102    0.0000 O   0  0  0  0  0  0  0  0  0  0  0  0
    5.1877    4.1557    0.0000 O   0  0  0  0  0  0  0  0  0  0  0  0
    2.5192   -2.0161    0.0000 O   0  0  0  0  0  0  0  0  0  0  0  0
    6.3334   -5.3190    0.0000 O   0  0  0  0  0  0  0  0  0  0  0  0
    7.8928   -0.4713    0.0000 O   0  0  0  0  0  0  0  0  0  0  0  0
    2.8885    4.1601    0.0000 O   0  0  0  0  0  0  0  0  0  0  0  0
    5.1877    1.1557    0.0000 C   0  0  2  0  0  0  0  0  0  0  0  0
    4.3058   -0.4135    0.0000 C   0  0  2  0  0  0  0  0  0  0  0  0
    5.2038    0.1142    0.0000 C   0  0  2  0  0  0  0  0  0  0  0  0
    4.3217    1.6557    0.0000 C   0  0  2  0  0  0  0  0  0  0  0  0
    4.2974   -1.4985    0.0000 C   0  0  1  0  0  0  0  0  0  0  0  0
    4.3217    2.6557    0.0000 C   0  0  3  0  0  0  0  0  0  0  0  0
    5.2370   -2.0410    0.0000 C   0  0  1  0  0  0  0  0  0  0  0  0
    3.4037    0.1073    0.0000 C   0  0  1  0  0  0  0  0  0  0  0  0
    3.4117    1.1489    0.0000 C   0  0  0  0  0  0  0  0  0  0  0  0
    5.3908    1.5256    0.0000 C   0  0  2  0  0  0  0  0  0  0  0  0
    6.0538    1.6557    0.0000 C   0  0  0  0  0  0  0  0  0  0  0  0
    6.1725   -1.4913    0.0000 C   0  0  2  0  0  0  0  0  0  0  0  0
    6.1557   -0.4064    0.0000 C   0  0  0  0  0  0  0  0  0  0  0  0
    4.7436    2.6466    0.0000 C   0  0  1  0  0  0  0  0  0  0  0  0
    5.4745    2.3213    0.0000 C   0  0  0  0  0  0  0  0  0  0  0  0
    5.0100   -3.0954    0.0000 C   0  0  1  0  0  0  0  0  0  0  0  0
    5.1877    3.1557    0.0000 C   0  0  3  0  0  0  0  0  0  0  0  0
    3.4436   -0.9202    0.0000 C   0  0  0  0  0  0  0  0  0  0  0  0
    3.4977   -2.2223    0.0000 C   0  0  0  0  0  0  0  0  0  0  0  0
    3.9373   -3.2072    0.0000 C   0  0  0  0  0  0  0  0  0  0  0  0
    3.4557    3.1557    0.0000 C   0  0  0  0  0  0  0  0  0  0  0  0
    6.1031   -2.5410    0.0000 C   0  0  0  0  0  0  0  0  0  0  0  0
    5.6779   -3.8397    0.0000 C   0  0  0  0  0  0  0  0  0  0  0  0
    6.6726   -3.7369    0.0000 C   0  0  0  0  0  0  0  0  0  0  0  0
    5.4683   -4.8175    0.0000 C   0  0  0  0  0  0  0  0  0  0  0  0
    7.9044   -1.4712    0.0000 C   0  0  0  0  0  0  0  0  0  0  0  0
    3.8666    4.3679    0.0000 C   0  0  0  0  0  0  0  0  0  0  0  0
    7.0778   -4.6512    0.0000 C   0  0  0  0  0  0  0  0  0  0  0  0
    8.7761   -1.9612    0.0000 C   0  0  0  0  0  0  0  0  0  0  0  0
    4.1756    5.3190    0.0000 C   0  0  0  0  0  0  0  0  0  0  0  0
    5.9316    0.5533    0.0000 H   0  0  0  0  0  0  0  0  0  0  0  0
    3.5856    2.0807    0.0000 H   0  0  0  0  0  0  0  0  0  0  0  0
    3.5218   -1.1508    0.0000 H   0  0  0  0  0  0  0  0  0  0  0  0
    2.8686    0.4204    0.0000 H   0  0  0  0  0  0  0  0  0  0  0  0
    3.2072    1.7342    0.0000 H   0  0  0  0  0  0  0  0  0  0  0  0
    2.8001    1.0475    0.0000 H   0  0  0  0  0  0  0  0  0  0  0  0
    5.9696    1.7478    0.0000 H   0  0  0  0  0  0  0  0  0  0  0  0
    6.2658    1.0731    0.0000 H   0  0  0  0  0  0  0  0  0  0  0  0
    6.6644    1.7634    0.0000 H   0  0  0  0  0  0  0  0  0  0  0  0
    6.7052   -1.1741    0.0000 H   0  0  0  0  0  0  0  0  0  0  0  0
    5.2255    3.0368    0.0000 H   0  0  0  0  0  0  0  0  0  0  0  0
    6.0809    2.1924    0.0000 H   0  0  0  0  0  0  0  0  0  0  0  0
    5.6660    2.9109    0.0000 H   0  0  0  0  0  0  0  0  0  0  0  0
    4.7871   -3.6739    0.0000 H   0  0  0  0  0  0  0  0  0  0  0  0
    4.6508    3.4657    0.0000 H   0  0  0  0  0  0  0  0  0  0  0  0
    3.1295   -0.3857    0.0000 H   0  0  0  0  0  0  0  0  0  0  0  0
    2.9091   -1.2343    0.0000 H   0  0  0  0  0  0  0  0  0  0  0  0
    3.7578   -1.4547    0.0000 H   0  0  0  0  0  0  0  0  0  0  0  0
    3.3477   -3.3990    0.0000 H   0  0  0  0  0  0  0  0  0  0  0  0
    4.0660   -3.8137    0.0000 H   0  0  0  0  0  0  0  0  0  0  0  0
    3.7657    3.6927    0.0000 H   0  0  0  0  0  0  0  0  0  0  0  0
    2.9188    3.4657    0.0000 H   0  0  0  0  0  0  0  0  0  0  0  0
    3.1457    2.6188    0.0000 H   0  0  0  0  0  0  0  0  0  0  0  0
    5.7931   -3.0779    0.0000 H   0  0  0  0  0  0  0  0  0  0  0  0
    6.6400   -2.8510    0.0000 H   0  0  0  0  0  0  0  0  0  0  0  0
    6.4131   -2.0041    0.0000 H   0  0  0  0  0  0  0  0  0  0  0  0
    2.0000   -0.0773    0.0000 H   0  0  0  0  0  0  0  0  0  0  0  0
    6.7236    1.0481    0.0000 H   0  0  0  0  0  0  0  0  0  0  0  0
    5.7247    4.4657    0.0000 H   0  0  0  0  0  0  0  0  0  0  0  0
    6.9835   -3.2005    0.0000 H   0  0  0  0  0  0  0  0  0  0  0  0
    4.9014   -5.0687    0.0000 H   0  0  0  0  0  0  0  0  0  0  0  0
    7.6840   -4.7811    0.0000 H   0  0  0  0  0  0  0  0  0  0  0  0
    8.4724   -2.5017    0.0000 H   0  0  0  0  0  0  0  0  0  0  0  0
    9.3166   -2.2650    0.0000 H   0  0  0  0  0  0  0  0  0  0  0  0
    9.0799   -1.4207    0.0000 H   0  0  0  0  0  0  0  0  0  0  0  0
    4.7652    5.1274    0.0000 H   0  0  0  0  0  0  0  0  0  0  0  0
    4.3672    5.9086    0.0000 H   0  0  0  0  0  0  0  0  0  0  0  0
    3.5859    5.5106    0.0000 H   0  0  0  0  0  0  0  0  0  0  0  0
  1 22  1  0  0  0  0
  1 28  1  0  0  0  0
 19  2  1  6  0  0  0
  2 68  1  0  0  0  0
 21  3  1  6  0  0  0
  3 69  1  0  0  0  0
 23  4  1  6  0  0  0
  4 37  1  0  0  0  0
 25  5  1  6  0  0  0
  5 38  1  0  0  0  0
  6 24  2  0  0  0  0
  7 28  1  0  0  0  0
  7 70  1  0  0  0  0
  8 30  2  0  0  0  0
  9 36  1  0  0  0  0
  9 39  1  0  0  0  0
 10 37  2  0  0  0  0
 11 38  2  0  0  0  0
 12 14  1  0  0  0  0
 12 15  1  0  0  0  0
 12 21  1  0  0  0  0
 12 22  1  1  0  0  0
 13 14  1  0  0  0  0
 13 16  1  0  0  0  0
 13 19  1  0  0  0  0
 13 29  1  1  0  0  0
 14 24  1  0  0  0  0
 14 42  1  6  0  0  0
 15 17  1  0  0  0  0
 15 20  1  0  0  0  0
 15 43  1  6  0  0  0
 16 18  1  0  0  0  0
 16 30  1  0  0  0  0
 16 44  1  6  0  0  0
 17 25  1  0  0  0  0
 17 28  1  0  0  0  0
 17 32  1  0  0  0  0
 18 23  1  0  0  0  0
 18 27  1  0  0  0  0
 18 33  1  6  0  0  0
 19 20  1  0  0  0  0
 19 45  1  0  0  0  0
 20 46  1  0  0  0  0
 20 47  1  0  0  0  0
 21 26  1  0  0  0  0
 21 48  1  0  0  0  0
 22 49  1  0  0  0  0
 22 50  1  0  0  0  0
 23 24  1  0  0  0  0
 23 51  1  0  0  0  0
 25 26  1  0  0  0  0
 25 52  1  0  0  0  0
 26 53  1  0  0  0  0
 26 54  1  0  0  0  0
 27 31  1  0  0  0  0
 27 34  1  6  0  0  0
 27 55  1  0  0  0  0
 28 56  1  0  0  0  0
 29 57  1  0  0  0  0
 29 58  1  0  0  0  0
 29 59  1  0  0  0  0
 30 31  1  0  0  0  0
 31 60  1  0  0  0  0
 31 61  1  0  0  0  0
 32 62  1  0  0  0  0
 32 63  1  0  0  0  0
 32 64  1  0  0  0  0
 33 65  1  0  0  0  0
 33 66  1  0  0  0  0
 33 67  1  0  0  0  0
 34 35  1  0  0  0  0
 34 36  2  0  0  0  0
 35 39  2  0  0  0  0
 35 71  1  0  0  0  0
 36 72  1  0  0  0  0
 37 40  1  0  0  0  0
 38 41  1  0  0  0  0
 39 73  1  0  0  0  0
 40 74  1  0  0  0  0
 40 75  1  0  0  0  0
 40 76  1  0  0  0  0
 41 77  1  0  0  0  0
 41 78  1  0  0  0  0
 41 79  1  0  0  0  0
M  END
> <PUBCHEM_COMPOUND_CID>
126939

> <PUBCHEM_COMPOUND_CANONICALIZED>
1

> <PUBCHEM_CACTVS_COMPLEXITY>
1170

> <PUBCHEM_CACTVS_HBOND_ACCEPTOR>
11

> <PUBCHEM_CACTVS_HBOND_DONOR>
3

> <PUBCHEM_CACTVS_ROTATABLE_BOND>
5

> <PUBCHEM_CACTVS_SUBSKEYS>
AAADcfB4PAAAAAAAAAAAAAAAAAAAAaIAAAA0YMEAAAASAGDRgAAAGgAACAAADxSwmAMyDIAABkCIAqjSiAICCAAkIAAIiAFGCMgcNhIENQ6CWSClwBEMKYOK7vzvgAAAAAAAAADAAAYQADAAAQAACAAAAA==

> <PUBCHEM_IUPAC_OPENEYE_NAME>
[(1S,2S,4R,5S,6S,9S,10S,11R,13R,18S,20R)-4-acetoxy-6-(3-furyl)-11,15,18-trihydroxy-5,10,14-trimethyl-3,8-dioxo-16-oxapentacyclo[12.3.3.01,13.02,10.05,9]icosan-20-yl] acetate

> <PUBCHEM_IUPAC_CAS_NAME>
acetic acid [(1S,2S,4R,5S,6S,9S,10S,11R,13R,18S,20R)-4-acetyloxy-6-(3-furanyl)-11,15,18-trihydroxy-5,10,14-trimethyl-3,8-dioxo-16-oxapentacyclo[12.3.3.01,13.02,10.05,9]eicosan-20-yl] ester

> <PUBCHEM_IUPAC_NAME_MARKUP>
[(1<I>S</I>,2<I>S</I>,4<I>R</I>,5<I>S</I>,6<I>S</I>,9<I>S</I>,10<I>S</I>,11<I>R</I>,13<I>R</I>,18<I>S</I>,20<I>R</I>)-4-acetyloxy-6-(furan-3-yl)-11,15,18-trihydroxy-5,10,14-trimethyl-3,8-dioxo-16-oxapentacyclo[12.3.3.0<SUP>1,13</SUP>.0<SUP>2,10</SUP>.0<SUP>5,9</SUP>]icosan-20-yl] acetate

> <PUBCHEM_IUPAC_NAME>
[(1S,2S,4R,5S,6S,9S,10S,11R,13R,18S,20R)-4-acetyloxy-6-(furan-3-yl)-11,15,18-trihydroxy-5,10,14-trimethyl-3,8-dioxo-16-oxapentacyclo[12.3.3.01,13.02,10.05,9]icosan-20-yl] acetate

> <PUBCHEM_IUPAC_SYSTEMATIC_NAME>
[(1S,2S,4R,5S,6S,9S,10S,11R,13R,18S,20R)-4-acetyloxy-6-(furan-3-yl)-5,10,14-trimethyl-11,15,18-tris(oxidanyl)-3,8-bis(oxidanylidene)-16-oxapentacyclo[12.3.3.01,13.02,10.05,9]icosan-20-yl] ethanoate

> <PUBCHEM_IUPAC_TRADITIONAL_NAME>
acetic acid [(1S,2S,4R,5S,6S,9S,10S,11R,13R,18S,20R)-4-acetoxy-6-(3-furyl)-11,15,18-trihydroxy-3,8-diketo-5,10,14-trimethyl-16-oxapentacyclo[12.3.3.01,13.02,10.05,9]eicosan-20-yl] ester

> <PUBCHEM_IUPAC_INCHI>
InChI=1S/C30H38O11/c1-13(31)40-21-10-20(35)30-12-39-26(37)28(21,4)18(30)9-19(34)29(5)23-17(33)8-16(15-6-7-38-11-15)27(23,3)25(41-14(2)32)22(36)24(29)30/h6-7,11,16,18-21,23-26,34-35,37H,8-10,12H2,1-5H3/t16-,18-,19+,20-,21+,23+,24-,25-,26?,27-,28?,29-,30+/m0/s1

> <PUBCHEM_IUPAC_INCHIKEY>
GEHGAWHOBGXBGC-MIUHORAWSA-N

> <PUBCHEM_XLOGP3_AA>
0.5

> <PUBCHEM_EXACT_MASS>
574.24141202

> <PUBCHEM_MOLECULAR_FORMULA>
C30H38O11

> <PUBCHEM_MOLECULAR_WEIGHT>
574.6

> <PUBCHEM_OPENEYE_CAN_SMILES>
CC(=O)OC1CC(C23COC(C1(C2CC(C4(C3C(=O)C(C5(C4C(=O)CC5C6=COC=C6)C)OC(=O)C)C)O)C)O)O

> <PUBCHEM_OPENEYE_ISO_SMILES>
CC(=O)O[C@@H]1C[C@@H]([C@@]23COC(C1([C@@H]2C[C@H]([C@@]4([C@@H]3C(=O)[C@@H]([C@@]5([C@H]4C(=O)C[C@H]5C6=COC=C6)C)OC(=O)C)C)O)C)O)O

> <PUBCHEM_CACTVS_TPSA>
170

> <PUBCHEM_MONOISOTOPIC_WEIGHT>
574.24141202

> <PUBCHEM_TOTAL_CHARGE>
0

> <PUBCHEM_HEAVY_ATOM_COUNT>
41

> <PUBCHEM_ATOM_DEF_STEREO_COUNT>
11

> <PUBCHEM_ATOM_UDEF_STEREO_COUNT>
2

> <PUBCHEM_BOND_DEF_STEREO_COUNT>
0

> <PUBCHEM_BOND_UDEF_STEREO_COUNT>
0

> <PUBCHEM_ISOTOPIC_ATOM_COUNT>
0

> <PUBCHEM_COMPONENT_COUNT>
1

> <PUBCHEM_CACTVS_TAUTO_COUNT>
-1

> <PUBCHEM_COORDINATE_TYPE>
1
5
255

> <PUBCHEM_BONDANNOTATIONS>
12  22  5
13  29  5
14  42  6
15  43  6
16  44  6
17  32  3
18  33  6
19  2  6
27  34  6
21  3  6
34  35  8
34  36  8
35  39  8
23  4  6
25  5  6
28  7  3
9  36  8
9  39  8

$$$$
78119096
  -OEChem-10012202192D

 79 84  0     1  0  0  0  0  0999 V2000
    6.0538    2.6557    0.0000 O   0  0  0  0  0  0  0  0  0  0  0  0
    2.5357   -0.3894    0.0000 O   0  0  0  0  0  0  0  0  0  0  0  0
    6.1340    0.8565    0.0000 O   0  0  0  0  0  0  0  0  0  0  0  0
    7.0442   -1.9812    0.0000 O   0  0  0  0  0  0  0  0  0  0  0  0
    4.5357    3.6248    0.0000 O   0  0  0  0  0  0  0  0  0  0  0  0
    7.0120    0.1102    0.0000 O   0  0  0  0  0  0  0  0  0  0  0  0
    5.1877    4.1557    0.0000 O   0  0  0  0  0  0  0  0  0  0  0  0
    2.5192   -2.0161    0.0000 O   0  0  0  0  0  0  0  0  0  0  0  0
    7.0778   -4.6512    0.0000 O   0  0  0  0  0  0  0  0  0  0  0  0
    7.8928   -0.4713    0.0000 O   0  0  0  0  0  0  0  0  0  0  0  0
    2.8885    4.1601    0.0000 O   0  0  0  0  0  0  0  0  0  0  0  0
    5.1877    1.1557    0.0000 C   0  0  3  0  0  0  0  0  0  0  0  0
    4.3058   -0.4135    0.0000 C   0  0  3  0  0  0  0  0  0  0  0  0
    5.2038    0.1142    0.0000 C   0  0  3  0  0  0  0  0  0  0  0  0
    4.3217    1.6557    0.0000 C   0  0  3  0  0  0  0  0  0  0  0  0
    4.2974   -1.4985    0.0000 C   0  0  3  0  0  0  0  0  0  0  0  0
    4.3217    2.6557    0.0000 C   0  0  3  0  0  0  0  0  0  0  0  0
    5.2370   -2.0410    0.0000 C   0  0  3  0  0  0  0  0  0  0  0  0
    3.4037    0.1073    0.0000 C   0  0  3  0  0  0  0  0  0  0  0  0
    3.4117    1.1489    0.0000 C   0  0  0  0  0  0  0  0  0  0  0  0
    5.3908    1.5256    0.0000 C   0  0  3  0  0  0  0  0  0  0  0  0
    6.0538    1.6557    0.0000 C   0  0  0  0  0  0  0  0  0  0  0  0
    6.1725   -1.4913    0.0000 C   0  0  3  0  0  0  0  0  0  0  0  0
    6.1557   -0.4064    0.0000 C   0  0  0  0  0  0  0  0  0  0  0  0
    4.7436    2.6466    0.0000 C   0  0  3  0  0  0  0  0  0  0  0  0
    5.4745    2.3213    0.0000 C   0  0  0  0  0  0  0  0  0  0  0  0
    5.0100   -3.0954    0.0000 C   0  0  3  0  0  0  0  0  0  0  0  0
    5.1877    3.1557    0.0000 C   0  0  3  0  0  0  0  0  0  0  0  0
    3.4436   -0.9202    0.0000 C   0  0  0  0  0  0  0  0  0  0  0  0
    3.4977   -2.2223    0.0000 C   0  0  0  0  0  0  0  0  0  0  0  0
    3.9373   -3.2072    0.0000 C   0  0  0  0  0  0  0  0  0  0  0  0
    3.4557    3.1557    0.0000 C   0  0  0  0  0  0  0  0  0  0  0  0
    6.1031   -2.5410    0.0000 C   0  0  0  0  0  0  0  0  0  0  0  0
    5.6779   -3.8397    0.0000 C   0  0  0  0  0  0  0  0  0  0  0  0
    5.4683   -4.8175    0.0000 C   0  0  0  0  0  0  0  0  0  0  0  0
    6.6726   -3.7369    0.0000 C   0  0  0  0  0  0  0  0  0  0  0  0
    7.9044   -1.4712    0.0000 C   0  0  0  0  0  0  0  0  0  0  0  0
    3.8666    4.3679    0.0000 C   0  0  0  0  0  0  0  0  0  0  0  0
    6.3334   -5.3190    0.0000 C   0  0  0  0  0  0  0  0  0  0  0  0
    8.7761   -1.9612    0.0000 C   0  0  0  0  0  0  0  0  0  0  0  0
    4.1756    5.3190    0.0000 C   0  0  0  0  0  0  0  0  0  0  0  0
    5.7347    0.4345    0.0000 H   0  0  0  0  0  0  0  0  0  0  0  0
    3.7872    1.9698    0.0000 H   0  0  0  0  0  0  0  0  0  0  0  0
    3.7316   -1.2449    0.0000 H   0  0  0  0  0  0  0  0  0  0  0  0
    2.8686    0.4204    0.0000 H   0  0  0  0  0  0  0  0  0  0  0  0
    3.2072    1.7342    0.0000 H   0  0  0  0  0  0  0  0  0  0  0  0
    2.8001    1.0475    0.0000 H   0  0  0  0  0  0  0  0  0  0  0  0
    5.9696    1.7478    0.0000 H   0  0  0  0  0  0  0  0  0  0  0  0
    6.2658    1.0731    0.0000 H   0  0  0  0  0  0  0  0  0  0  0  0
    6.6644    1.7634    0.0000 H   0  0  0  0  0  0  0  0  0  0  0  0
    6.7052   -1.1741    0.0000 H   0  0  0  0  0  0  0  0  0  0  0  0
    5.2255    3.0368    0.0000 H   0  0  0  0  0  0  0  0  0  0  0  0
    6.0809    2.1924    0.0000 H   0  0  0  0  0  0  0  0  0  0  0  0
    5.6660    2.9109    0.0000 H   0  0  0  0  0  0  0  0  0  0  0  0
    4.7871   -3.6739    0.0000 H   0  0  0  0  0  0  0  0  0  0  0  0
    4.6508    3.4657    0.0000 H   0  0  0  0  0  0  0  0  0  0  0  0
    3.1295   -0.3857    0.0000 H   0  0  0  0  0  0  0  0  0  0  0  0
    2.9091   -1.2343    0.0000 H   0  0  0  0  0  0  0  0  0  0  0  0
    3.7578   -1.4547    0.0000 H   0  0  0  0  0  0  0  0  0  0  0  0
    3.3477   -3.3990    0.0000 H   0  0  0  0  0  0  0  0  0  0  0  0
    4.0660   -3.8137    0.0000 H   0  0  0  0  0  0  0  0  0  0  0  0
    3.7657    3.6927    0.0000 H   0  0  0  0  0  0  0  0  0  0  0  0
    2.9188    3.4657    0.0000 H   0  0  0  0  0  0  0  0  0  0  0  0
    3.1457    2.6188    0.0000 H   0  0  0  0  0  0  0  0  0  0  0  0
    5.7931   -3.0779    0.0000 H   0  0  0  0  0  0  0  0  0  0  0  0
    6.6400   -2.8510    0.0000 H   0  0  0  0  0  0  0  0  0  0  0  0
    6.4131   -2.0041    0.0000 H   0  0  0  0  0  0  0  0  0  0  0  0
    2.0000   -0.0773    0.0000 H   0  0  0  0  0  0  0  0  0  0  0  0
    6.7236    1.0481    0.0000 H   0  0  0  0  0  0  0  0  0  0  0  0
    5.7247    4.4657    0.0000 H   0  0  0  0  0  0  0  0  0  0  0  0
    4.9014   -5.0687    0.0000 H   0  0  0  0  0  0  0  0  0  0  0  0
    6.9835   -3.2005    0.0000 H   0  0  0  0  0  0  0  0  0  0  0  0
    6.3972   -5.9357    0.0000 H   0  0  0  0  0  0  0  0  0  0  0  0
    8.4724   -2.5017    0.0000 H   0  0  0  0  0  0  0  0  0  0  0  0
    9.3166   -2.2650    0.0000 H   0  0  0  0  0  0  0  0  0  0  0  0
    9.0799   -1.4207    0.0000 H   0  0  0  0  0  0  0  0  0  0  0  0
    4.7652    5.1274    0.0000 H   0  0  0  0  0  0  0  0  0  0  0  0
    4.3672    5.9086    0.0000 H   0  0  0  0  0  0  0  0  0  0  0  0
    3.5859    5.5106    0.0000 H   0  0  0  0  0  0  0  0  0  0  0  0
  1 22  1  0  0  0  0
  1 28  1  0  0  0  0
  2 19  1  0  0  0  0
  2 68  1  0  0  0  0
  3 21  1  0  0  0  0
  3 69  1  0  0  0  0
  4 23  1  0  0  0  0
  4 37  1  0  0  0  0
  5 25  1  0  0  0  0
  5 38  1  0  0  0  0
  6 24  2  0  0  0  0
  7 28  1  0  0  0  0
  7 70  1  0  0  0  0
  8 30  2  0  0  0  0
  9 36  1  0  0  0  0
  9 39  1  0  0  0  0
 10 37  2  0  0  0  0
 11 38  2  0  0  0  0
 12 14  1  0  0  0  0
 12 15  1  0  0  0  0
 12 21  1  0  0  0  0
 12 22  1  0  0  0  0
 13 14  1  0  0  0  0
 13 16  1  0  0  0  0
 13 19  1  0  0  0  0
 13 29  1  0  0  0  0
 14 24  1  0  0  0  0
 14 42  1  0  0  0  0
 15 17  1  0  0  0  0
 15 20  1  0  0  0  0
 15 43  1  0  0  0  0
 16 18  1  0  0  0  0
 16 30  1  0  0  0  0
 16 44  1  0  0  0  0
 17 25  1  0  0  0  0
 17 28  1  0  0  0  0
 17 32  1  0  0  0  0
 18 23  1  0  0  0  0
 18 27  1  0  0  0  0
 18 33  1  0  0  0  0
 19 20  1  0  0  0  0
 19 45  1  0  0  0  0
 20 46  1  0  0  0  0
 20 47  1  0  0  0  0
 21 26  1  0  0  0  0
 21 48  1  0  0  0  0
 22 49  1  0  0  0  0
 22 50  1  0  0  0  0
 23 24  1  0  0  0  0
 23 51  1  0  0  0  0
 25 26  1  0  0  0  0
 25 52  1  0  0  0  0
 26 53  1  0  0  0  0
 26 54  1  0  0  0  0
 27 31  1  0  0  0  0
 27 34  1  0  0  0  0
 27 55  1  0  0  0  0
 28 56  1  0  0  0  0
 29 57  1  0  0  0  0
 29 58  1  0  0  0  0
 29 59  1  0  0  0  0
 30 31  1  0  0  0  0
 31 60  1  0  0  0  0
 31 61  1  0  0  0  0
 32 62  1  0  0  0  0
 32 63  1  0  0  0  0
 32 64  1  0  0  0  0
 33 65  1  0  0  0  0
 33 66  1  0  0  0  0
 33 67  1  0  0  0  0
 34 35  1  0  0  0  0
 34 36  2  0  0  0  0
 35 39  2  0  0  0  0
 35 71  1  0  0  0  0
 36 72  1  0  0  0  0
 37 40  1  0  0  0  0
 38 41  1  0  0  0  0
 39 73  1  0  0  0  0
 40 74  1  0  0  0  0
 40 75  1  0  0  0  0
 40 76  1  0  0  0  0
 41 77  1  0  0  0  0
 41 78  1  0  0  0  0
 41 79  1  0  0  0  0
M  END
> <PUBCHEM_COMPOUND_CID>
78119096

> <PUBCHEM_COMPOUND_CANONICALIZED>
1

> <PUBCHEM_CACTVS_COMPLEXITY>
1170

> <PUBCHEM_CACTVS_HBOND_ACCEPTOR>
11

> <PUBCHEM_CACTVS_HBOND_DONOR>
3

> <PUBCHEM_CACTVS_ROTATABLE_BOND>
5

> <PUBCHEM_CACTVS_SUBSKEYS>
AAADcfB4PAAAAAAAAAAAAAAAAAAAAaIAAAA0YMEAAAASAGDRgAAAGgAACAAADxSwmAMyDIAABkCIAqjSiAICCAAkIAAIiAFGCMgcNhIENQ6CWSClwBEMKYOK7vzvgAAAAAAAAADAAAYQADAAAQAACAAAAA==

> <PUBCHEM_IUPAC_OPENEYE_NAME>
[4-acetoxy-6-(3-furyl)-11,15,18-trihydroxy-5,10,14-trimethyl-3,8-dioxo-16-oxapentacyclo[12.3.3.01,13.02,10.05,9]icosan-20-yl] acetate

> <PUBCHEM_IUPAC_CAS_NAME>
acetic acid [4-acetyloxy-6-(3-furanyl)-11,15,18-trihydroxy-5,10,14-trimethyl-3,8-dioxo-16-oxapentacyclo[12.3.3.01,13.02,10.05,9]eicosan-20-yl] ester

> <PUBCHEM_IUPAC_NAME_MARKUP>
[4-acetyloxy-6-(furan-3-yl)-11,15,18-trihydroxy-5,10,14-trimethyl-3,8-dioxo-16-oxapentacyclo[12.3.3.0<SUP>1,13</SUP>.0<SUP>2,10</SUP>.0<SUP>5,9</SUP>]icosan-20-yl] acetate

> <PUBCHEM_IUPAC_NAME>
[4-acetyloxy-6-(furan-3-yl)-11,15,18-trihydroxy-5,10,14-trimethyl-3,8-dioxo-16-oxapentacyclo[12.3.3.01,13.02,10.05,9]icosan-20-yl] acetate

> <PUBCHEM_IUPAC_SYSTEMATIC_NAME>
[4-acetyloxy-6-(furan-3-yl)-5,10,14-trimethyl-11,15,18-tris(oxidanyl)-3,8-bis(oxidanylidene)-16-oxapentacyclo[12.3.3.01,13.02,10.05,9]icosan-20-yl] ethanoate

> <PUBCHEM_IUPAC_TRADITIONAL_NAME>
acetic acid [4-acetoxy-6-(3-furyl)-11,15,18-trihydroxy-3,8-diketo-5,10,14-trimethyl-16-oxapentacyclo[12.3.3.01,13.02,10.05,9]eicosan-20-yl] ester

> <PUBCHEM_IUPAC_INCHI>
InChI=1S/C30H38O11/c1-13(31)40-21-10-20(35)30-12-39-26(37)28(21,4)18(30)9-19(34)29(5)23-17(33)8-16(15-6-7-38-11-15)27(23,3)25(41-14(2)32)22(36)24(29)30/h6-7,11,16,18-21,23-26,34-35,37H,8-10,12H2,1-5H3

> <PUBCHEM_IUPAC_INCHIKEY>
GEHGAWHOBGXBGC-UHFFFAOYSA-N

> <PUBCHEM_XLOGP3_AA>
0.5

> <PUBCHEM_EXACT_MASS>
574.24141202

> <PUBCHEM_MOLECULAR_FORMULA>
C30H38O11

> <PUBCHEM_MOLECULAR_WEIGHT>
574.6

> <PUBCHEM_OPENEYE_CAN_SMILES>
CC(=O)OC1CC(C23COC(C1(C2CC(C4(C3C(=O)C(C5(C4C(=O)CC5C6=COC=C6)C)OC(=O)C)C)O)C)O)O

> <PUBCHEM_OPENEYE_ISO_SMILES>
CC(=O)OC1CC(C23COC(C1(C2CC(C4(C3C(=O)C(C5(C4C(=O)CC5C6=COC=C6)C)OC(=O)C)C)O)C)O)O

> <PUBCHEM_CACTVS_TPSA>
170

> <PUBCHEM_MONOISOTOPIC_WEIGHT>
574.24141202

> <PUBCHEM_TOTAL_CHARGE>
0

> <PUBCHEM_HEAVY_ATOM_COUNT>
41

> <PUBCHEM_ATOM_DEF_STEREO_COUNT>
0

> <PUBCHEM_ATOM_UDEF_STEREO_COUNT>
13

> <PUBCHEM_BOND_DEF_STEREO_COUNT>
0

> <PUBCHEM_BOND_UDEF_STEREO_COUNT>
0

> <PUBCHEM_ISOTOPIC_ATOM_COUNT>
0

> <PUBCHEM_COMPONENT_COUNT>
1

> <PUBCHEM_CACTVS_TAUTO_COUNT>
-1

> <PUBCHEM_COORDINATE_TYPE>
1
5
255

> <PUBCHEM_BONDANNOTATIONS>
12  22  3
13  29  3
14  24  3
15  20  3
16  30  3
17  32  3
18  33  3
19  2  3
27  34  3
21  3  3
34  35  8
34  36  8
35  39  8
23  4  3
25  5  3
28  7  3
9  36  8
9  39  8

$$$$
