184459
  -OEChem-10012202142D

 30 29  0     0  0  0  0  0  0999 V2000
    2.2690    0.8660    0.0000 P   0  0  0  0  0  0  0  0  0  0  0  0
    3.1350    1.3660    0.0000 O   0  0  0  0  0  0  0  0  0  0  0  0
    1.4030    0.3660    0.0000 O   0  0  0  0  0  0  0  0  0  0  0  0
    1.7690    1.7320    0.0000 O   0  0  0  0  0  0  0  0  0  0  0  0
    2.7690    0.0000    0.0000 O   0  0  0  0  0  0  0  0  0  0  0  0
    2.2690    4.8059    0.0000 N   0  0  0  0  0  0  0  0  0  0  0  0
    2.2690    6.8059    0.0000 N   0  0  0  0  0  0  0  0  0  0  0  0
    1.4030    5.3059    0.0000 C   0  0  0  0  0  0  0  0  0  0  0  0
    1.4030    6.3059    0.0000 C   0  0  0  0  0  0  0  0  0  0  0  0
    3.1350    5.3059    0.0000 C   0  0  0  0  0  0  0  0  0  0  0  0
    3.1350    6.3059    0.0000 C   0  0  0  0  0  0  0  0  0  0  0  0
    0.5369    4.8059    0.0000 C   0  0  0  0  0  0  0  0  0  0  0  0
    0.5369    6.8059    0.0000 C   0  0  0  0  0  0  0  0  0  0  0  0
    4.0010    4.8059    0.0000 C   0  0  0  0  0  0  0  0  0  0  0  0
    4.0010    6.8059    0.0000 C   0  0  0  0  0  0  0  0  0  0  0  0
    0.2269    5.3429    0.0000 H   0  0  0  0  0  0  0  0  0  0  0  0
    0.0000    4.4959    0.0000 H   0  0  0  0  0  0  0  0  0  0  0  0
    0.8469    4.2690    0.0000 H   0  0  0  0  0  0  0  0  0  0  0  0
    0.8469    7.3429    0.0000 H   0  0  0  0  0  0  0  0  0  0  0  0
    0.0000    7.1159    0.0000 H   0  0  0  0  0  0  0  0  0  0  0  0
    0.2269    6.2690    0.0000 H   0  0  0  0  0  0  0  0  0  0  0  0
    3.6910    4.2690    0.0000 H   0  0  0  0  0  0  0  0  0  0  0  0
    4.5380    4.4959    0.0000 H   0  0  0  0  0  0  0  0  0  0  0  0
    4.3110    5.3429    0.0000 H   0  0  0  0  0  0  0  0  0  0  0  0
    4.3110    6.2690    0.0000 H   0  0  0  0  0  0  0  0  0  0  0  0
    4.5380    7.1159    0.0000 H   0  0  0  0  0  0  0  0  0  0  0  0
    3.6910    7.3429    0.0000 H   0  0  0  0  0  0  0  0  0  0  0  0
    3.6720    1.0560    0.0000 H   0  0  0  0  0  0  0  0  0  0  0  0
    0.8660    0.6760    0.0000 H   0  0  0  0  0  0  0  0  0  0  0  0
    2.0790    2.2690    0.0000 H   0  0  0  0  0  0  0  0  0  0  0  0
  1  2  1  0  0  0  0
  1  3  1  0  0  0  0
  1  4  1  0  0  0  0
  1  5  2  0  0  0  0
  2 28  1  0  0  0  0
  3 29  1  0  0  0  0
  4 30  1  0  0  0  0
  6  8  2  0  0  0  0
  6 10  1  0  0  0  0
  7  9  2  0  0  0  0
  7 11  1  0  0  0  0
  8  9  1  0  0  0  0
  8 12  1  0  0  0  0
  9 13  1  0  0  0  0
 10 11  2  0  0  0  0
 10 14  1  0  0  0  0
 11 15  1  0  0  0  0
 12 16  1  0  0  0  0
 12 17  1  0  0  0  0
 12 18  1  0  0  0  0
 13 19  1  0  0  0  0
 13 20  1  0  0  0  0
 13 21  1  0  0  0  0
 14 22  1  0  0  0  0
 14 23  1  0  0  0  0
 14 24  1  0  0  0  0
 15 25  1  0  0  0  0
 15 26  1  0  0  0  0
 15 27  1  0  0  0  0
M  END
> <PUBCHEM_COMPOUND_CID>
184459

> <PUBCHEM_COMPOUND_CANONICALIZED>
1

> <PUBCHEM_CACTVS_COMPLEXITY>
138

> <PUBCHEM_CACTVS_HBOND_ACCEPTOR>
6

> <PUBCHEM_CACTVS_HBOND_DONOR>
3

> <PUBCHEM_CACTVS_ROTATABLE_BOND>
0

> <PUBCHEM_CACTVS_SUBSKEYS>
AAADccBzOAIAAAAAAAAAAAAAAAAAAAAAAAAsAAAAAAAAAAABgAAAHAAACCAACAiBFgACgBIIEBCgQQRgRIAAgCQBECAAGAAwUAAAQEBAAAAUAAAAAADAAAAAAAAAAAAAAAAAAAAAAAAAAAAAAAAAAAAAAA==

> <PUBCHEM_IUPAC_OPENEYE_NAME>
phosphoric acid;2,3,5,6-tetramethylpyrazine

> <PUBCHEM_IUPAC_CAS_NAME>
phosphoric acid;2,3,5,6-tetramethylpyrazine

> <PUBCHEM_IUPAC_NAME_MARKUP>
phosphoric acid;2,3,5,6-tetramethylpyrazine

> <PUBCHEM_IUPAC_NAME>
phosphoric acid;2,3,5,6-tetramethylpyrazine

> <PUBCHEM_IUPAC_SYSTEMATIC_NAME>
phosphoric acid;2,3,5,6-tetramethylpyrazine

> <PUBCHEM_IUPAC_TRADITIONAL_NAME>
phosphoric acid;2,3,5,6-tetramethylpyrazine

> <PUBCHEM_IUPAC_INCHI>
InChI=1S/C8H12N2.H3O4P/c1-5-6(2)10-8(4)7(3)9-5;1-5(2,3)4/h1-4H3;(H3,1,2,3,4)

> <PUBCHEM_IUPAC_INCHIKEY>
KWWLGXNRLABSMP-UHFFFAOYSA-N

> <PUBCHEM_EXACT_MASS>
234.07694396

> <PUBCHEM_MOLECULAR_FORMULA>
C8H15N2O4P

> <PUBCHEM_MOLECULAR_WEIGHT>
234.19

> <PUBCHEM_OPENEYE_CAN_SMILES>
CC1=C(N=C(C(=N1)C)C)C.OP(=O)(O)O

> <PUBCHEM_OPENEYE_ISO_SMILES>
CC1=C(N=C(C(=N1)C)C)C.OP(=O)(O)O

> <PUBCHEM_CACTVS_TPSA>
104

> <PUBCHEM_MONOISOTOPIC_WEIGHT>
234.07694396

> <PUBCHEM_TOTAL_CHARGE>
0

> <PUBCHEM_HEAVY_ATOM_COUNT>
15

> <PUBCHEM_ATOM_DEF_STEREO_COUNT>
0

> <PUBCHEM_ATOM_UDEF_STEREO_COUNT>
0

> <PUBCHEM_BOND_DEF_STEREO_COUNT>
0

> <PUBCHEM_BOND_UDEF_STEREO_COUNT>
0

> <PUBCHEM_ISOTOPIC_ATOM_COUNT>
0

> <PUBCHEM_COMPONENT_COUNT>
2

> <PUBCHEM_CACTVS_TAUTO_COUNT>
1

> <PUBCHEM_COORDINATE_TYPE>
1
5
255

> <PUBCHEM_BONDANNOTATIONS>
10  11  8
6  10  8
6  8  8
7  11  8
7  9  8
8  9  8

$$$$
