22833608
  -OEChem-10012202072D

 66 68  0     1  0  0  0  0  0999 V2000
    7.8699    0.6389    0.0000 O   0  0  0  0  0  0  0  0  0  0  0  0
    9.8379    1.3383    0.0000 O   0  0  0  0  0  0  0  0  0  0  0  0
   11.5979    2.2351    0.0000 O   0  0  0  0  0  0  0  0  0  0  0  0
    5.9019   -1.2360    0.0000 O   0  0  0  0  0  0  0  0  0  0  0  0
    6.7821   -1.7089    0.0000 O   0  0  0  0  0  0  0  0  0  0  0  0
    8.9577   -1.7089    0.0000 O   0  0  0  0  0  0  0  0  0  0  0  0
    4.1418   -0.9572    0.0000 O   0  0  0  0  0  0  0  0  0  0  0  0
   10.5101   -0.1127    0.0000 O   0  0  0  0  0  0  0  0  0  0  0  0
    6.8798    1.7737    0.0000 O   0  0  0  0  0  0  0  0  0  0  0  0
   12.6857   -0.1127    0.0000 O   0  0  0  0  0  0  0  0  0  0  0  0
    5.2296   -3.3051    0.0000 O   0  0  0  0  0  0  0  0  0  0  0  0
    3.0540   -3.3051    0.0000 O   0  0  0  0  0  0  0  0  0  0  0  0
    2.5896   -2.2142    0.0000 O   0  0  0  0  0  0  0  0  0  0  0  0
   10.6079    3.3699    0.0000 O   0  0  0  0  0  0  0  0  0  0  0  0
   13.5659    2.9345    0.0000 O   0  0  0  0  0  0  0  0  0  0  0  0
    2.1738   -0.2579    0.0000 O   0  0  0  0  0  0  0  0  0  0  0  0
    7.0609    0.0512    0.0000 C   0  0  2  0  0  0  0  0  0  0  0  0
    7.3699   -0.8999    0.0000 C   0  0  2  0  0  0  0  0  0  0  0  0
    8.6789    0.0512    0.0000 C   0  0  1  0  0  0  0  0  0  0  0  0
    8.3699   -0.8999    0.0000 C   0  0  1  0  0  0  0  0  0  0  0  0
    6.1098   -0.2579    0.0000 C   0  0  0  0  0  0  0  0  0  0  0  0
   10.7889    1.6473    0.0000 C   0  0  2  0  0  0  0  0  0  0  0  0
    9.6299    0.3602    0.0000 C   0  0  0  0  0  0  0  0  0  0  0  0
   11.0979    0.6963    0.0000 C   0  0  2  0  0  0  0  0  0  0  0  0
    6.4731    0.8602    0.0000 C   0  0  0  0  0  0  0  0  0  0  0  0
   12.0979    0.6963    0.0000 C   0  0  1  0  0  0  0  0  0  0  0  0
   12.4070    1.6473    0.0000 C   0  0  1  0  0  0  0  0  0  0  0  0
    4.9508   -1.5450    0.0000 C   0  0  1  0  0  0  0  0  0  0  0  0
    4.6418   -2.4961    0.0000 C   0  0  2  0  0  0  0  0  0  0  0  0
    3.6418   -2.4961    0.0000 C   0  0  1  0  0  0  0  0  0  0  0  0
    3.3328   -1.5450    0.0000 C   0  0  1  0  0  0  0  0  0  0  0  0
   10.2011    2.4564    0.0000 C   0  0  0  0  0  0  0  0  0  0  0  0
   13.3580    1.9564    0.0000 C   0  0  0  0  0  0  0  0  0  0  0  0
    3.1249   -0.5669    0.0000 C   0  0  0  0  0  0  0  0  0  0  0  0
    7.6514   -1.4523    0.0000 H   0  0  0  0  0  0  0  0  0  0  0  0
    8.7759    0.6635    0.0000 H   0  0  0  0  0  0  0  0  0  0  0  0
    8.9822   -0.8029    0.0000 H   0  0  0  0  0  0  0  0  0  0  0  0
    6.0235    0.3561    0.0000 H   0  0  0  0  0  0  0  0  0  0  0  0
    5.4902   -0.2362    0.0000 H   0  0  0  0  0  0  0  0  0  0  0  0
    9.7162   -0.2538    0.0000 H   0  0  0  0  0  0  0  0  0  0  0  0
   10.2496    0.3385    0.0000 H   0  0  0  0  0  0  0  0  0  0  0  0
   10.4856    0.7933    0.0000 H   0  0  0  0  0  0  0  0  0  0  0  0
    5.9591    1.2069    0.0000 H   0  0  0  0  0  0  0  0  0  0  0  0
    6.0424    0.4142    0.0000 H   0  0  0  0  0  0  0  0  0  0  0  0
   11.8165    0.1439    0.0000 H   0  0  0  0  0  0  0  0  0  0  0  0
   12.5039    2.2597    0.0000 H   0  0  0  0  0  0  0  0  0  0  0  0
    5.3892   -1.9834    0.0000 H   0  0  0  0  0  0  0  0  0  0  0  0
    4.3603   -3.0485    0.0000 H   0  0  0  0  0  0  0  0  0  0  0  0
    3.9233   -3.0485    0.0000 H   0  0  0  0  0  0  0  0  0  0  0  0
    9.6871    2.8031    0.0000 H   0  0  0  0  0  0  0  0  0  0  0  0
    9.7704    2.0104    0.0000 H   0  0  0  0  0  0  0  0  0  0  0  0
    7.0343   -2.2753    0.0000 H   0  0  0  0  0  0  0  0  0  0  0  0
    9.5743   -1.6441    0.0000 H   0  0  0  0  0  0  0  0  0  0  0  0
   13.4443    1.3424    0.0000 H   0  0  0  0  0  0  0  0  0  0  0  0
   13.9776    1.9347    0.0000 H   0  0  0  0  0  0  0  0  0  0  0  0
    3.7445   -0.5452    0.0000 H   0  0  0  0  0  0  0  0  0  0  0  0
    3.2112    0.0471    0.0000 H   0  0  0  0  0  0  0  0  0  0  0  0
   10.7623   -0.6791    0.0000 H   0  0  0  0  0  0  0  0  0  0  0  0
    6.5154    2.2753    0.0000 H   0  0  0  0  0  0  0  0  0  0  0  0
   13.3023   -0.0479    0.0000 H   0  0  0  0  0  0  0  0  0  0  0  0
    5.8462   -3.2403    0.0000 H   0  0  0  0  0  0  0  0  0  0  0  0
    3.3062   -3.8715    0.0000 H   0  0  0  0  0  0  0  0  0  0  0  0
    2.0000   -2.0226    0.0000 H   0  0  0  0  0  0  0  0  0  0  0  0
   10.2434    3.8715    0.0000 H   0  0  0  0  0  0  0  0  0  0  0  0
   14.1556    3.1261    0.0000 H   0  0  0  0  0  0  0  0  0  0  0  0
    2.0449    0.3486    0.0000 H   0  0  0  0  0  0  0  0  0  0  0  0
  1 17  1  0  0  0  0
  1 19  1  0  0  0  0
 22  2  1  6  0  0  0
  2 23  1  0  0  0  0
  3 22  1  0  0  0  0
  3 27  1  0  0  0  0
  4 21  1  0  0  0  0
 28  4  1  6  0  0  0
 18  5  1  6  0  0  0
  5 52  1  0  0  0  0
 20  6  1  1  0  0  0
  6 53  1  0  0  0  0
  7 28  1  0  0  0  0
  7 31  1  0  0  0  0
 24  8  1  6  0  0  0
  8 58  1  0  0  0  0
  9 25  1  0  0  0  0
  9 59  1  0  0  0  0
 26 10  1  1  0  0  0
 10 60  1  0  0  0  0
 29 11  1  1  0  0  0
 11 61  1  0  0  0  0
 30 12  1  6  0  0  0
 12 62  1  0  0  0  0
 31 13  1  6  0  0  0
 13 63  1  0  0  0  0
 14 32  1  0  0  0  0
 14 64  1  0  0  0  0
 15 33  1  0  0  0  0
 15 65  1  0  0  0  0
 16 34  1  0  0  0  0
 16 66  1  0  0  0  0
 17 18  1  0  0  0  0
 17 21  1  0  0  0  0
 17 25  1  1  0  0  0
 18 20  1  0  0  0  0
 18 35  1  0  0  0  0
 19 20  1  0  0  0  0
 19 23  1  6  0  0  0
 19 36  1  0  0  0  0
 20 37  1  0  0  0  0
 21 38  1  0  0  0  0
 21 39  1  0  0  0  0
 22 24  1  0  0  0  0
 22 32  1  0  0  0  0
 23 40  1  0  0  0  0
 23 41  1  0  0  0  0
 24 26  1  0  0  0  0
 24 42  1  0  0  0  0
 25 43  1  0  0  0  0
 25 44  1  0  0  0  0
 26 27  1  0  0  0  0
 26 45  1  0  0  0  0
 27 33  1  6  0  0  0
 27 46  1  0  0  0  0
 28 29  1  0  0  0  0
 28 47  1  0  0  0  0
 29 30  1  0  0  0  0
 29 48  1  0  0  0  0
 30 31  1  0  0  0  0
 30 49  1  0  0  0  0
 31 34  1  0  0  0  0
 32 50  1  0  0  0  0
 32 51  1  0  0  0  0
 33 54  1  0  0  0  0
 33 55  1  0  0  0  0
 34 56  1  0  0  0  0
 34 57  1  0  0  0  0
M  END
> <PUBCHEM_COMPOUND_CID>
22833608

> <PUBCHEM_COMPOUND_CANONICALIZED>
1

> <PUBCHEM_CACTVS_COMPLEXITY>
684

> <PUBCHEM_CACTVS_HBOND_ACCEPTOR>
16

> <PUBCHEM_CACTVS_HBOND_DONOR>
11

> <PUBCHEM_CACTVS_ROTATABLE_BOND>
10

> <PUBCHEM_CACTVS_SUBSKEYS>
AAADcfB4PgAAAAAAAAAAAAAAAAAAASJEgAAAAAAAAAAAAAAAAAAAGgAACAAADFSwgAMACAAABgAAAAAAAAAAAAAAAAAAAAAAAAAREAIAAAAiQAAFAAAHAAHAYBwMAAAAAAAAAAAAAAAAAAAAAAAAAAAAAA==

> <PUBCHEM_IUPAC_OPENEYE_NAME>
(2R,3S,4S,5S)-5-[[(2S,3S,4S,5R)-5-[[(2R,3S,4S,5R)-3,4-dihydroxy-2,5-bis(hydroxymethyl)tetrahydrofuran-2-yl]oxymethyl]-3,4-dihydroxy-2-(hydroxymethyl)tetrahydrofuran-2-yl]methoxy]-2-(hydroxymethyl)tetrahydrofuran-2,3,4-triol

> <PUBCHEM_IUPAC_CAS_NAME>
(2R,3S,4S,5S)-5-[[(2S,3S,4S,5R)-5-[[(2R,3S,4S,5R)-3,4-dihydroxy-2,5-bis(hydroxymethyl)-2-oxolanyl]oxymethyl]-3,4-dihydroxy-2-(hydroxymethyl)-2-oxolanyl]methoxy]-2-(hydroxymethyl)oxolane-2,3,4-triol

> <PUBCHEM_IUPAC_NAME_MARKUP>
(2<I>R</I>,3<I>S</I>,4<I>S</I>,5<I>S</I>)-5-[[(2<I>S</I>,3<I>S</I>,4<I>S</I>,5<I>R</I>)-5-[[(2<I>R</I>,3<I>S</I>,4<I>S</I>,5<I>R</I>)-3,4-dihydroxy-2,5-bis(hydroxymethyl)oxolan-2-yl]oxymethyl]-3,4-dihydroxy-2-(hydroxymethyl)oxolan-2-yl]methoxy]-2-(hydroxymethyl)oxolane-2,3,4-triol

> <PUBCHEM_IUPAC_NAME>
(2R,3S,4S,5S)-5-[[(2S,3S,4S,5R)-5-[[(2R,3S,4S,5R)-3,4-dihydroxy-2,5-bis(hydroxymethyl)oxolan-2-yl]oxymethyl]-3,4-dihydroxy-2-(hydroxymethyl)oxolan-2-yl]methoxy]-2-(hydroxymethyl)oxolane-2,3,4-triol

> <PUBCHEM_IUPAC_SYSTEMATIC_NAME>
(2R,3S,4S,5S)-5-[[(2S,3S,4S,5R)-5-[[(2R,3S,4S,5R)-2,5-bis(hydroxymethyl)-3,4-bis(oxidanyl)oxolan-2-yl]oxymethyl]-2-(hydroxymethyl)-3,4-bis(oxidanyl)oxolan-2-yl]methoxy]-2-(hydroxymethyl)oxolane-2,3,4-triol

> <PUBCHEM_IUPAC_TRADITIONAL_NAME>
(2R,3S,4S,5S)-5-[[(2S,3S,4S,5R)-5-[[(2R,3S,4S,5R)-3,4-dihydroxy-2,5-dimethylol-tetrahydrofuran-2-yl]oxymethyl]-3,4-dihydroxy-2-methylol-tetrahydrofuran-2-yl]methoxy]-2-methylol-tetrahydrofuran-2,3,4-triol

> <PUBCHEM_IUPAC_INCHI>
InChI=1S/C18H32O16/c19-1-7-9(23)14(28)18(5-22,33-7)31-2-8-10(24)12(26)16(3-20,32-8)6-30-15-11(25)13(27)17(29,4-21)34-15/h7-15,19-29H,1-6H2/t7-,8-,9-,10-,11+,12+,13+,14+,15+,16+,17-,18-/m1/s1

> <PUBCHEM_IUPAC_INCHIKEY>
AIHDCSAXVMAMJH-GFBKWZILSA-N

> <PUBCHEM_XLOGP3_AA>
-6

> <PUBCHEM_EXACT_MASS>
504.16903493

> <PUBCHEM_MOLECULAR_FORMULA>
C18H32O16

> <PUBCHEM_MOLECULAR_WEIGHT>
504.4

> <PUBCHEM_OPENEYE_CAN_SMILES>
C(C1C(C(C(O1)(CO)OCC2C(C(C(O2)(CO)COC3C(C(C(O3)(CO)O)O)O)O)O)O)O)O

> <PUBCHEM_OPENEYE_ISO_SMILES>
C([C@@H]1[C@H]([C@@H]([C@](O1)(CO)OC[C@@H]2[C@H]([C@@H]([C@](O2)(CO)CO[C@@H]3[C@H]([C@@H]([C@](O3)(CO)O)O)O)O)O)O)O)O

> <PUBCHEM_CACTVS_TPSA>
269

> <PUBCHEM_MONOISOTOPIC_WEIGHT>
504.16903493

> <PUBCHEM_TOTAL_CHARGE>
0

> <PUBCHEM_HEAVY_ATOM_COUNT>
34

> <PUBCHEM_ATOM_DEF_STEREO_COUNT>
12

> <PUBCHEM_ATOM_UDEF_STEREO_COUNT>
0

> <PUBCHEM_BOND_DEF_STEREO_COUNT>
0

> <PUBCHEM_BOND_UDEF_STEREO_COUNT>
0

> <PUBCHEM_ISOTOPIC_ATOM_COUNT>
0

> <PUBCHEM_COMPONENT_COUNT>
1

> <PUBCHEM_CACTVS_TAUTO_COUNT>
-1

> <PUBCHEM_COORDINATE_TYPE>
1
5
255

> <PUBCHEM_BONDANNOTATIONS>
26  10  5
29  11  5
30  12  6
31  13  6
17  25  5
19  23  6
22  2  6
27  33  6
28  4  6
18  5  6
20  6  5
24  8  6

$$$$
