23667944
  -OEChem-10012202152D

 38 39  0     0  0  0  0  0  0999 V2000
   10.7282   -0.2329    0.0000 S   0  0  0  0  0  0  0  0  0  0  0  0
   11.6000   -1.7296    0.0000 Na  0  3  0  0  0  0  0  0  0  0  0  0
    6.3580   -1.8017    0.0000 O   0  0  0  0  0  0  0  0  0  0  0  0
    2.8660    0.2329    0.0000 O   0  0  0  0  0  0  0  0  0  0  0  0
    4.5981    1.2329    0.0000 O   0  0  0  0  0  0  0  0  0  0  0  0
    6.3465    1.2675    0.0000 O   0  0  0  0  0  0  0  0  0  0  0  0
   10.7205    1.7671    0.0000 O   0  0  0  0  0  0  0  0  0  0  0  0
    2.8660   -1.7671    0.0000 O   0  0  0  0  0  0  0  0  0  0  0  0
   11.5961   -0.7296    0.0000 O   0  5  0  0  0  0  0  0  0  0  0  0
   10.2315   -1.1009    0.0000 O   0  0  0  0  0  0  0  0  0  0  0  0
   11.2248    0.6350    0.0000 O   0  0  0  0  0  0  0  0  0  0  0  0
    7.2641   -0.2463    0.0000 C   0  0  0  0  0  0  0  0  0  0  0  0
    5.4641   -0.2671    0.0000 C   0  0  0  0  0  0  0  0  0  0  0  0
    8.1282    0.2571    0.0000 C   0  0  0  0  0  0  0  0  0  0  0  0
    6.3580    0.2676    0.0000 C   0  0  0  0  0  0  0  0  0  0  0  0
    5.4641   -1.2671    0.0000 C   0  0  0  0  0  0  0  0  0  0  0  0
    8.9962   -0.2396    0.0000 C   0  0  0  0  0  0  0  0  0  0  0  0
    4.5981    0.2329    0.0000 C   0  0  0  0  0  0  0  0  0  0  0  0
    9.8602    0.2638    0.0000 C   0  0  0  0  0  0  0  0  0  0  0  0
    7.2641   -1.2879    0.0000 C   0  0  0  0  0  0  0  0  0  0  0  0
    8.1244    1.2571    0.0000 C   0  0  0  0  0  0  0  0  0  0  0  0
    4.5981   -1.7671    0.0000 C   0  0  0  0  0  0  0  0  0  0  0  0
    3.7320   -0.2671    0.0000 C   0  0  0  0  0  0  0  0  0  0  0  0
    9.8564    1.2637    0.0000 C   0  0  0  0  0  0  0  0  0  0  0  0
    3.7320   -1.2671    0.0000 C   0  0  0  0  0  0  0  0  0  0  0  0
    8.9884    1.7604    0.0000 C   0  0  0  0  0  0  0  0  0  0  0  0
    2.0000   -0.2671    0.0000 C   0  0  0  0  0  0  0  0  0  0  0  0
    8.9985   -0.8596    0.0000 H   0  0  0  0  0  0  0  0  0  0  0  0
    7.7998   -1.6000    0.0000 H   0  0  0  0  0  0  0  0  0  0  0  0
    7.5862    1.5650    0.0000 H   0  0  0  0  0  0  0  0  0  0  0  0
    4.5981   -2.3871    0.0000 H   0  0  0  0  0  0  0  0  0  0  0  0
    8.9860    2.3804    0.0000 H   0  0  0  0  0  0  0  0  0  0  0  0
    4.0611    1.5429    0.0000 H   0  0  0  0  0  0  0  0  0  0  0  0
   10.7181    2.3871    0.0000 H   0  0  0  0  0  0  0  0  0  0  0  0
    2.8660   -2.3871    0.0000 H   0  0  0  0  0  0  0  0  0  0  0  0
    1.6900    0.2699    0.0000 H   0  0  0  0  0  0  0  0  0  0  0  0
    1.4631   -0.5771    0.0000 H   0  0  0  0  0  0  0  0  0  0  0  0
    2.3100   -0.8040    0.0000 H   0  0  0  0  0  0  0  0  0  0  0  0
  1  9  1  0  0  0  0
  1 10  2  0  0  0  0
  1 11  2  0  0  0  0
  1 19  1  0  0  0  0
  3 16  1  0  0  0  0
  3 20  1  0  0  0  0
  4 23  1  0  0  0  0
  4 27  1  0  0  0  0
  5 18  1  0  0  0  0
  5 33  1  0  0  0  0
  6 15  2  0  0  0  0
  7 24  1  0  0  0  0
  7 34  1  0  0  0  0
  8 25  1  0  0  0  0
  8 35  1  0  0  0  0
 12 14  1  0  0  0  0
 12 15  1  0  0  0  0
 12 20  2  0  0  0  0
 13 15  1  0  0  0  0
 13 16  2  0  0  0  0
 13 18  1  0  0  0  0
 14 17  2  0  0  0  0
 14 21  1  0  0  0  0
 16 22  1  0  0  0  0
 17 19  1  0  0  0  0
 17 28  1  0  0  0  0
 18 23  2  0  0  0  0
 19 24  2  0  0  0  0
 20 29  1  0  0  0  0
 21 26  2  0  0  0  0
 21 30  1  0  0  0  0
 22 25  2  0  0  0  0
 22 31  1  0  0  0  0
 23 25  1  0  0  0  0
 24 26  1  0  0  0  0
 26 32  1  0  0  0  0
 27 36  1  0  0  0  0
 27 37  1  0  0  0  0
 27 38  1  0  0  0  0
M  CHG  2   2   1   9  -1
M  END
> <PUBCHEM_COMPOUND_CID>
23667944

> <PUBCHEM_COMPOUND_CANONICALIZED>
1

> <PUBCHEM_CACTVS_COMPLEXITY>
689

> <PUBCHEM_CACTVS_HBOND_ACCEPTOR>
9

> <PUBCHEM_CACTVS_HBOND_DONOR>
3

> <PUBCHEM_CACTVS_ROTATABLE_BOND>
3

> <PUBCHEM_CACTVS_SUBSKEYS>
AAADccB4PCBAAAAAAAAAAAAAAAAAAAAAAAAwYIAAAAAAAACBQAAAGgQACAAADASg2AIyB4AABgKIAqBSAHBCCEAkIAAIiBsGiMgNJzaGNRqAcWMl4BULuYfK7PzOIQABiAAIYABCAAMQABDAAAAAAAAAAA==

> <PUBCHEM_IUPAC_OPENEYE_NAME>
sodium;5-(5,7-dihydroxy-6-methoxy-4-oxo-chromen-3-yl)-2-hydroxy-benzenesulfonate

> <PUBCHEM_IUPAC_CAS_NAME>
sodium;5-(5,7-dihydroxy-6-methoxy-4-oxo-1-benzopyran-3-yl)-2-hydroxybenzenesulfonate

> <PUBCHEM_IUPAC_NAME_MARKUP>
sodium;5-(5,7-dihydroxy-6-methoxy-4-oxochromen-3-yl)-2-hydroxybenzenesulfonate

> <PUBCHEM_IUPAC_NAME>
sodium;5-(5,7-dihydroxy-6-methoxy-4-oxochromen-3-yl)-2-hydroxybenzenesulfonate

> <PUBCHEM_IUPAC_SYSTEMATIC_NAME>
sodium;5-[6-methoxy-5,7-bis(oxidanyl)-4-oxidanylidene-chromen-3-yl]-2-oxidanyl-benzenesulfonate

> <PUBCHEM_IUPAC_TRADITIONAL_NAME>
sodium;5-(5,7-dihydroxy-4-keto-6-methoxy-chromen-3-yl)-2-hydroxy-besylate

> <PUBCHEM_IUPAC_INCHI>
InChI=1S/C16H12O9S.Na/c1-24-16-10(18)5-11-13(15(16)20)14(19)8(6-25-11)7-2-3-9(17)12(4-7)26(21,22)23;/h2-6,17-18,20H,1H3,(H,21,22,23);/q;+1/p-1

> <PUBCHEM_IUPAC_INCHIKEY>
HTQBVSXOJWIXNI-UHFFFAOYSA-M

> <PUBCHEM_EXACT_MASS>
402.00214738

> <PUBCHEM_MOLECULAR_FORMULA>
C16H11NaO9S

> <PUBCHEM_MOLECULAR_WEIGHT>
402.3

> <PUBCHEM_OPENEYE_CAN_SMILES>
COC1=C(C2=C(C=C1O)OC=C(C2=O)C3=CC(=C(C=C3)O)S(=O)(=O)[O-])O.[Na+]

> <PUBCHEM_OPENEYE_ISO_SMILES>
COC1=C(C2=C(C=C1O)OC=C(C2=O)C3=CC(=C(C=C3)O)S(=O)(=O)[O-])O.[Na+]

> <PUBCHEM_CACTVS_TPSA>
162

> <PUBCHEM_MONOISOTOPIC_WEIGHT>
402.00214738

> <PUBCHEM_TOTAL_CHARGE>
0

> <PUBCHEM_HEAVY_ATOM_COUNT>
27

> <PUBCHEM_ATOM_DEF_STEREO_COUNT>
0

> <PUBCHEM_ATOM_UDEF_STEREO_COUNT>
0

> <PUBCHEM_BOND_DEF_STEREO_COUNT>
0

> <PUBCHEM_BOND_UDEF_STEREO_COUNT>
0

> <PUBCHEM_ISOTOPIC_ATOM_COUNT>
0

> <PUBCHEM_COMPONENT_COUNT>
2

> <PUBCHEM_CACTVS_TAUTO_COUNT>
-1

> <PUBCHEM_NONSTANDARDBOND>
2  9  7

> <PUBCHEM_COORDINATE_TYPE>
1
5
255

> <PUBCHEM_BONDANNOTATIONS>
12  15  8
12  20  8
13  15  8
13  16  8
13  18  8
14  17  8
14  21  8
16  22  8
17  19  8
18  23  8
19  24  8
21  26  8
22  25  8
23  25  8
24  26  8
3  16  8
3  20  8

$$$$
