24721085
  -OEChem-10012202182D

 41 44  0     1  0  0  0  0  0999 V2000
    7.3138    1.2295    0.0000 O   0  5  0  0  0  0  0  0  0  0  0  0
    2.9176   -2.3019    0.0000 O   0  0  0  0  0  0  0  0  0  0  0  0
    6.4421    0.7395    0.0000 N   0  3  1  0  0  0  0  0  0  0  0  0
    3.8000   -0.7673    0.0000 N   0  0  0  0  0  0  0  0  0  0  0  0
    5.5321    0.2327    0.0000 C   0  0  2  0  0  0  0  0  0  0  0  0
    4.6660    0.7327    0.0000 C   0  0  1  0  0  0  0  0  0  0  0  0
    5.5321   -0.7673    0.0000 C   0  0  2  0  0  0  0  0  0  0  0  0
    3.8000    0.2327    0.0000 C   0  0  1  0  0  0  0  0  0  0  0  0
    4.6500    1.7742    0.0000 C   0  0  0  0  0  0  0  0  0  0  0  0
    6.4501    1.7811    0.0000 C   0  0  0  0  0  0  0  0  0  0  0  0
    4.6660   -1.2673    0.0000 C   0  0  0  0  0  0  0  0  0  0  0  0
    7.2814    0.2113    0.0000 C   0  0  0  0  0  0  0  0  0  0  0  0
    6.3903   -1.2643    0.0000 C   0  0  0  0  0  0  0  0  0  0  0  0
    5.5480    2.3019    0.0000 C   0  0  0  0  0  0  0  0  0  0  0  0
    7.2558   -0.7801    0.0000 C   0  0  0  0  0  0  0  0  0  0  0  0
    2.9061    0.7673    0.0000 C   0  0  0  0  0  0  0  0  0  0  0  0
    2.9061   -1.3020    0.0000 C   0  0  0  0  0  0  0  0  0  0  0  0
    2.0000    0.2535    0.0000 C   0  0  0  0  0  0  0  0  0  0  0  0
    2.0000   -0.7881    0.0000 C   0  0  0  0  0  0  0  0  0  0  0  0
    5.5321    1.0827    0.0000 H   0  0  0  0  0  0  0  0  0  0  0  0
    3.9267    1.1520    0.0000 H   0  0  0  0  0  0  0  0  0  0  0  0
    5.5315   -1.6173    0.0000 H   0  0  0  0  0  0  0  0  0  0  0  0
    3.8066    1.0826    0.0000 H   0  0  0  0  0  0  0  0  0  0  0  0
    4.4319    2.3546    0.0000 H   0  0  0  0  0  0  0  0  0  0  0  0
    4.0408    1.6587    0.0000 H   0  0  0  0  0  0  0  0  0  0  0  0
    7.0601    1.6703    0.0000 H   0  0  0  0  0  0  0  0  0  0  0  0
    6.6636    2.3632    0.0000 H   0  0  0  0  0  0  0  0  0  0  0  0
    4.2675   -1.7423    0.0000 H   0  0  0  0  0  0  0  0  0  0  0  0
    5.0646   -1.7423    0.0000 H   0  0  0  0  0  0  0  0  0  0  0  0
    7.8885    0.0854    0.0000 H   0  0  0  0  0  0  0  0  0  0  0  0
    7.5131    0.7863    0.0000 H   0  0  0  0  0  0  0  0  0  0  0  0
    5.9892   -1.7371    0.0000 H   0  0  0  0  0  0  0  0  0  0  0  0
    6.7843   -1.7430    0.0000 H   0  0  0  0  0  0  0  0  0  0  0  0
    5.9453    2.7779    0.0000 H   0  0  0  0  0  0  0  0  0  0  0  0
    5.1470    2.7748    0.0000 H   0  0  0  0  0  0  0  0  0  0  0  0
    7.4575   -1.3664    0.0000 H   0  0  0  0  0  0  0  0  0  0  0  0
    7.8685   -0.6857    0.0000 H   0  0  0  0  0  0  0  0  0  0  0  0
    3.3107    1.2371    0.0000 H   0  0  0  0  0  0  0  0  0  0  0  0
    2.5124    1.2464    0.0000 H   0  0  0  0  0  0  0  0  0  0  0  0
    1.4643    0.5655    0.0000 H   0  0  0  0  0  0  0  0  0  0  0  0
    1.4643   -1.1002    0.0000 H   0  0  0  0  0  0  0  0  0  0  0  0
  3  1  1  1  0  0  0
  2 17  2  0  0  0  0
  3  5  1  0  0  0  0
  3 10  1  0  0  0  0
  3 12  1  0  0  0  0
  4  8  1  0  0  0  0
  4 11  1  0  0  0  0
  4 17  1  0  0  0  0
  5  6  1  0  0  0  0
  5  7  1  0  0  0  0
  5 20  1  6  0  0  0
  6  8  1  0  0  0  0
  6  9  1  0  0  0  0
  6 21  1  6  0  0  0
  7 11  1  0  0  0  0
  7 13  1  0  0  0  0
  7 22  1  6  0  0  0
  8 16  1  0  0  0  0
  8 23  1  1  0  0  0
  9 14  1  0  0  0  0
  9 24  1  0  0  0  0
  9 25  1  0  0  0  0
 10 14  1  0  0  0  0
 10 26  1  0  0  0  0
 10 27  1  0  0  0  0
 11 28  1  0  0  0  0
 11 29  1  0  0  0  0
 12 15  1  0  0  0  0
 12 30  1  0  0  0  0
 12 31  1  0  0  0  0
 13 15  1  0  0  0  0
 13 32  1  0  0  0  0
 13 33  1  0  0  0  0
 14 34  1  0  0  0  0
 14 35  1  0  0  0  0
 15 36  1  0  0  0  0
 15 37  1  0  0  0  0
 16 18  1  0  0  0  0
 16 38  1  0  0  0  0
 16 39  1  0  0  0  0
 17 19  1  0  0  0  0
 18 19  2  0  0  0  0
 18 40  1  0  0  0  0
 19 41  1  0  0  0  0
M  CHG  2   1  -1   3   1
M  END
> <PUBCHEM_COMPOUND_CID>
24721085

> <PUBCHEM_COMPOUND_CANONICALIZED>
1

> <PUBCHEM_CACTVS_COMPLEXITY>
436

> <PUBCHEM_CACTVS_HBOND_ACCEPTOR>
2

> <PUBCHEM_CACTVS_HBOND_DONOR>
0

> <PUBCHEM_CACTVS_ROTATABLE_BOND>
0

> <PUBCHEM_CACTVS_SUBSKEYS>
AAADceBzMAAAAAAAAAAAAAAAAAAAAAAAAAAsWLEAAAAAAACwAAAAHgAEAAAADSjBgAQAAAMQAACIACFSEACAAAAgAAAoCAAIAEgAAAIAwQAEAAAAhgCIAYMQgMAOAAAAAAAAAAAAAAAAAAAAAAAAAAAAAA==

> <PUBCHEM_IUPAC_OPENEYE_NAME>
(1R,2R,9S,13R,17S)-13-oxido-7-aza-13-azoniatetracyclo[7.7.1.02,7.013,17]heptadec-4-en-6-one

> <PUBCHEM_IUPAC_CAS_NAME>
(1R,2R,9S,13R,17S)-13-oxido-7-aza-13-azoniatetracyclo[7.7.1.02,7.013,17]heptadec-4-en-6-one

> <PUBCHEM_IUPAC_NAME_MARKUP>
(1<I>R</I>,2<I>R</I>,9<I>S</I>,13<I>R</I>,17<I>S</I>)-13-oxido-7-aza-13-azoniatetracyclo[7.7.1.0<SUP>2,7</SUP>.0<SUP>13,17</SUP>]heptadec-4-en-6-one

> <PUBCHEM_IUPAC_NAME>
(1R,2R,9S,13R,17S)-13-oxido-7-aza-13-azoniatetracyclo[7.7.1.02,7.013,17]heptadec-4-en-6-one

> <PUBCHEM_IUPAC_SYSTEMATIC_NAME>
(1R,2R,9S,13R,17S)-13-oxidanidyl-7-aza-13-azoniatetracyclo[7.7.1.02,7.013,17]heptadec-4-en-6-one

> <PUBCHEM_IUPAC_TRADITIONAL_NAME>
(1R,2R,9S,13R,17S)-13-oxido-7-aza-13-azoniatetracyclo[7.7.1.02,7.013,17]heptadec-4-en-6-one

> <PUBCHEM_IUPAC_INCHI>
InChI=1S/C15H22N2O2/c18-14-7-1-6-13-12-5-3-9-17(19)8-2-4-11(15(12)17)10-16(13)14/h1,7,11-13,15H,2-6,8-10H2/t11-,12+,13+,15-,17+/m0/s1

> <PUBCHEM_IUPAC_INCHIKEY>
QMGGMESMCJCABO-JARXUMMXSA-N

> <PUBCHEM_XLOGP3_AA>
1.2

> <PUBCHEM_EXACT_MASS>
262.168127949

> <PUBCHEM_MOLECULAR_FORMULA>
C15H22N2O2

> <PUBCHEM_MOLECULAR_WEIGHT>
262.35

> <PUBCHEM_OPENEYE_CAN_SMILES>
C1CC2CN3C(CC=CC3=O)C4C2[N+](C1)(CCC4)[O-]

> <PUBCHEM_OPENEYE_ISO_SMILES>
C1C[C@H]2CN3[C@H](CC=CC3=O)[C@@H]4[C@H]2[N@@+](C1)(CCC4)[O-]

> <PUBCHEM_CACTVS_TPSA>
38.4

> <PUBCHEM_MONOISOTOPIC_WEIGHT>
262.168127949

> <PUBCHEM_TOTAL_CHARGE>
0

> <PUBCHEM_HEAVY_ATOM_COUNT>
19

> <PUBCHEM_ATOM_DEF_STEREO_COUNT>
5

> <PUBCHEM_ATOM_UDEF_STEREO_COUNT>
0

> <PUBCHEM_BOND_DEF_STEREO_COUNT>
0

> <PUBCHEM_BOND_UDEF_STEREO_COUNT>
0

> <PUBCHEM_ISOTOPIC_ATOM_COUNT>
0

> <PUBCHEM_COMPONENT_COUNT>
1

> <PUBCHEM_CACTVS_TAUTO_COUNT>
1

> <PUBCHEM_COORDINATE_TYPE>
1
5
255

> <PUBCHEM_BONDANNOTATIONS>
3  1  5
5  20  6
6  21  6
7  22  6
8  23  5

$$$$
