3013170
  -OEChem-10012202042D

144144  0     1  0  0  0  0  0999 V2000
   12.9292    8.1356    0.0000 O   0  0  0  0  0  0  0  0  0  0  0  0
   14.5664   10.5835    0.0000 O   0  0  0  0  0  0  0  0  0  0  0  0
   14.0312    8.9362    0.0000 O   0  0  0  0  0  0  0  0  0  0  0  0
    9.4651    7.1356    0.0000 O   0  0  0  0  0  0  0  0  0  0  0  0
   10.3312    3.6356    0.0000 O   0  0  0  0  0  0  0  0  0  0  0  0
   12.9292    4.1356    0.0000 O   0  0  0  0  0  0  0  0  0  0  0  0
    6.8671    2.6356    0.0000 O   0  0  0  0  0  0  0  0  0  0  0  0
    5.1350    3.6356    0.0000 O   0  0  0  0  0  0  0  0  0  0  0  0
    6.8671   -6.3644    0.0000 O   0  0  0  0  0  0  0  0  0  0  0  0
    6.0010    5.1356    0.0000 O   0  0  0  0  0  0  0  0  0  0  0  0
    7.7331   -0.8644    0.0000 O   0  0  0  0  0  0  0  0  0  0  0  0
    6.8671   -5.3644    0.0000 O   0  0  0  0  0  0  0  0  0  0  0  0
    7.7331   -1.8644    0.0000 O   0  0  0  0  0  0  0  0  0  0  0  0
    6.0010   -9.8644    0.0000 O   0  0  0  0  0  0  0  0  0  0  0  0
    2.5369   -4.8644    0.0000 O   0  0  0  0  0  0  0  0  0  0  0  0
    3.4030   -0.3644    0.0000 O   0  0  0  0  0  0  0  0  0  0  0  0
    3.4030   -6.3644    0.0000 O   0  0  0  0  0  0  0  0  0  0  0  0
    9.4651   -3.8644    0.0000 O   0  0  0  0  0  0  0  0  0  0  0  0
    4.2690   -1.8644    0.0000 O   0  0  0  0  0  0  0  0  0  0  0  0
    8.5991   -2.3644    0.0000 O   0  0  0  0  0  0  0  0  0  0  0  0
   12.0632    9.6356    0.0000 N   0  0  0  0  0  0  0  0  0  0  0  0
   11.1972    7.1356    0.0000 N   0  0  0  0  0  0  0  0  0  0  0  0
    9.4651    5.1356    0.0000 N   0  0  0  0  0  0  0  0  0  0  0  0
    8.5991    2.6356    0.0000 N   0  0  0  0  0  0  0  0  0  0  0  0
   12.0632    2.6356    0.0000 N   0  0  0  0  0  0  0  0  0  0  0  0
    6.8671    0.6356    0.0000 N   0  0  0  0  0  0  0  0  0  0  0  0
    6.8671   -8.3644    0.0000 N   0  0  0  0  0  0  0  0  0  0  0  0
    5.1350   -6.3644    0.0000 N   0  0  0  0  0  0  0  0  0  0  0  0
    6.0010   -3.8644    0.0000 N   0  0  0  0  0  0  0  0  0  0  0  0
    6.0010   -1.8644    0.0000 N   0  0  0  0  0  0  0  0  0  0  0  0
    7.7331  -10.8644    0.0000 N   0  0  0  0  0  0  0  0  0  0  0  0
   12.8722   10.2234    0.0000 C   0  0  1  0  0  0  0  0  0  0  0  0
   12.5632   11.1744    0.0000 C   0  0  0  0  0  0  0  0  0  0  0  0
   11.2542   10.2234    0.0000 C   0  0  0  0  0  0  0  0  0  0  0  0
   11.5632   11.1744    0.0000 C   0  0  0  0  0  0  0  0  0  0  0  0
   11.1972    8.1356    0.0000 C   0  0  2  0  0  0  0  0  0  0  0  0
   12.0632    8.6356    0.0000 C   0  0  0  0  0  0  0  0  0  0  0  0
   10.3312    8.6356    0.0000 C   0  0  2  0  0  0  0  0  0  0  0  0
    9.4651    8.1356    0.0000 C   0  0  0  0  0  0  0  0  0  0  0  0
   13.8233    9.9144    0.0000 C   0  0  0  0  0  0  0  0  0  0  0  0
   10.3312    9.6356    0.0000 C   0  0  0  0  0  0  0  0  0  0  0  0
   10.3312    6.6356    0.0000 C   0  0  0  0  0  0  0  0  0  0  0  0
    8.5991    8.6356    0.0000 C   0  0  0  0  0  0  0  0  0  0  0  0
   10.3312    5.6356    0.0000 C   0  0  2  0  0  0  0  0  0  0  0  0
   11.1972    5.1356    0.0000 C   0  0  0  0  0  0  0  0  0  0  0  0
   11.1972    4.1356    0.0000 C   0  0  0  0  0  0  0  0  0  0  0  0
    9.4651    4.1356    0.0000 C   0  0  0  0  0  0  0  0  0  0  0  0
    8.5991    3.6356    0.0000 C   0  0  2  0  0  0  0  0  0  0  0  0
    7.7331    4.1356    0.0000 C   0  0  0  0  0  0  0  0  0  0  0  0
   12.0632    3.6356    0.0000 C   0  0  0  0  0  0  0  0  0  0  0  0
    6.8671    3.6356    0.0000 C   0  0  0  0  0  0  0  0  0  0  0  0
    7.7331    2.1356    0.0000 C   0  0  0  0  0  0  0  0  0  0  0  0
    7.7331    1.1356    0.0000 C   0  0  2  0  0  0  0  0  0  0  0  0
    6.0010   -7.8644    0.0000 C   0  0  1  0  0  0  0  0  0  0  0  0
    5.1350   -8.3644    0.0000 C   0  0  0  0  0  0  0  0  0  0  0  0
    5.1350   -5.3644    0.0000 C   0  0  2  0  0  0  0  0  0  0  0  0
    6.0010    4.1356    0.0000 C   0  0  0  0  0  0  0  0  0  0  0  0
    6.0010   -6.8644    0.0000 C   0  0  0  0  0  0  0  0  0  0  0  0
    6.0010   -0.8644    0.0000 C   0  0  2  0  0  0  0  0  0  0  0  0
    8.5991    0.6356    0.0000 C   0  0  0  0  0  0  0  0  0  0  0  0
    5.1350   -9.3644    0.0000 C   0  0  0  0  0  0  0  0  0  0  0  0
    4.2690   -7.8644    0.0000 C   0  0  0  0  0  0  0  0  0  0  0  0
    6.8671   -3.3644    0.0000 C   0  0  2  0  0  0  0  0  0  0  0  0
    6.8671   -0.3644    0.0000 C   0  0  0  0  0  0  0  0  0  0  0  0
    6.0010   -4.8644    0.0000 C   0  0  0  0  0  0  0  0  0  0  0  0
    4.2690   -4.8644    0.0000 C   0  0  0  0  0  0  0  0  0  0  0  0
    6.8671   -2.3644    0.0000 C   0  0  0  0  0  0  0  0  0  0  0  0
    5.1350   -0.3644    0.0000 C   0  0  0  0  0  0  0  0  0  0  0  0
    6.8671   -9.3644    0.0000 C   0  0  0  0  0  0  0  0  0  0  0  0
    7.7331   -3.8644    0.0000 C   0  0  0  0  0  0  0  0  0  0  0  0
    7.7331   -9.8644    0.0000 C   0  0  2  0  0  0  0  0  0  0  0  0
    3.4030   -5.3644    0.0000 C   0  0  0  0  0  0  0  0  0  0  0  0
    8.5991   -9.3644    0.0000 C   0  0  0  0  0  0  0  0  0  0  0  0
    4.2690   -0.8644    0.0000 C   0  0  0  0  0  0  0  0  0  0  0  0
    8.5991   -3.3644    0.0000 C   0  0  0  0  0  0  0  0  0  0  0  0
   12.9692    9.6110    0.0000 H   0  0  0  0  0  0  0  0  0  0  0  0
   13.1697   11.3033    0.0000 H   0  0  0  0  0  0  0  0  0  0  0  0
   12.4984   11.7910    0.0000 H   0  0  0  0  0  0  0  0  0  0  0  0
   10.6878   10.4755    0.0000 H   0  0  0  0  0  0  0  0  0  0  0  0
   10.9442    9.6864    0.0000 H   0  0  0  0  0  0  0  0  0  0  0  0
   11.6280   11.7910    0.0000 H   0  0  0  0  0  0  0  0  0  0  0  0
   10.9568   11.3033    0.0000 H   0  0  0  0  0  0  0  0  0  0  0  0
   10.6603    7.8256    0.0000 H   0  0  0  0  0  0  0  0  0  0  0  0
   10.8681    8.9456    0.0000 H   0  0  0  0  0  0  0  0  0  0  0  0
    9.0666    7.6606    0.0000 H   0  0  0  0  0  0  0  0  0  0  0  0
    9.8637    7.6606    0.0000 H   0  0  0  0  0  0  0  0  0  0  0  0
   11.7341    6.8256    0.0000 H   0  0  0  0  0  0  0  0  0  0  0  0
   10.9512    9.6356    0.0000 H   0  0  0  0  0  0  0  0  0  0  0  0
   10.3312   10.2556    0.0000 H   0  0  0  0  0  0  0  0  0  0  0  0
    9.7112    9.6356    0.0000 H   0  0  0  0  0  0  0  0  0  0  0  0
    8.9091    9.1725    0.0000 H   0  0  0  0  0  0  0  0  0  0  0  0
    8.0622    8.9456    0.0000 H   0  0  0  0  0  0  0  0  0  0  0  0
    8.2891    8.0986    0.0000 H   0  0  0  0  0  0  0  0  0  0  0  0
    9.7942    5.9456    0.0000 H   0  0  0  0  0  0  0  0  0  0  0  0
   11.8078    5.0279    0.0000 H   0  0  0  0  0  0  0  0  0  0  0  0
   11.4092    5.7182    0.0000 H   0  0  0  0  0  0  0  0  0  0  0  0
   15.1561   10.3919    0.0000 H   0  0  0  0  0  0  0  0  0  0  0  0
    8.9282    5.4456    0.0000 H   0  0  0  0  0  0  0  0  0  0  0  0
   10.5866    4.2432    0.0000 H   0  0  0  0  0  0  0  0  0  0  0  0
   10.9851    3.5530    0.0000 H   0  0  0  0  0  0  0  0  0  0  0  0
    8.0622    3.3256    0.0000 H   0  0  0  0  0  0  0  0  0  0  0  0
    8.1316    4.6105    0.0000 H   0  0  0  0  0  0  0  0  0  0  0  0
    7.3346    4.6105    0.0000 H   0  0  0  0  0  0  0  0  0  0  0  0
    9.1360    2.3256    0.0000 H   0  0  0  0  0  0  0  0  0  0  0  0
    6.4685    3.1606    0.0000 H   0  0  0  0  0  0  0  0  0  0  0  0
    7.2656    3.1606    0.0000 H   0  0  0  0  0  0  0  0  0  0  0  0
    7.7331    0.5156    0.0000 H   0  0  0  0  0  0  0  0  0  0  0  0
    6.5380   -7.5544    0.0000 H   0  0  0  0  0  0  0  0  0  0  0  0
    5.1350   -7.7444    0.0000 H   0  0  0  0  0  0  0  0  0  0  0  0
   12.6002    2.3256    0.0000 H   0  0  0  0  0  0  0  0  0  0  0  0
   11.5263    2.3256    0.0000 H   0  0  0  0  0  0  0  0  0  0  0  0
    5.6720   -5.6744    0.0000 H   0  0  0  0  0  0  0  0  0  0  0  0
    6.3301    0.9456    0.0000 H   0  0  0  0  0  0  0  0  0  0  0  0
    6.5380   -1.1744    0.0000 H   0  0  0  0  0  0  0  0  0  0  0  0
    8.2891    0.0986    0.0000 H   0  0  0  0  0  0  0  0  0  0  0  0
    9.1360    0.3256    0.0000 H   0  0  0  0  0  0  0  0  0  0  0  0
    8.9091    1.1725    0.0000 H   0  0  0  0  0  0  0  0  0  0  0  0
    4.5150   -9.3644    0.0000 H   0  0  0  0  0  0  0  0  0  0  0  0
    5.1350   -9.9844    0.0000 H   0  0  0  0  0  0  0  0  0  0  0  0
    5.7550   -9.3644    0.0000 H   0  0  0  0  0  0  0  0  0  0  0  0
    4.5790   -7.3275    0.0000 H   0  0  0  0  0  0  0  0  0  0  0  0
    3.7320   -7.5544    0.0000 H   0  0  0  0  0  0  0  0  0  0  0  0
    3.9590   -8.4014    0.0000 H   0  0  0  0  0  0  0  0  0  0  0  0
    7.4040   -8.0544    0.0000 H   0  0  0  0  0  0  0  0  0  0  0  0
    4.5981   -6.6744    0.0000 H   0  0  0  0  0  0  0  0  0  0  0  0
    6.3301   -3.0544    0.0000 H   0  0  0  0  0  0  0  0  0  0  0  0
    4.6675   -4.3895    0.0000 H   0  0  0  0  0  0  0  0  0  0  0  0
    3.8705   -4.3895    0.0000 H   0  0  0  0  0  0  0  0  0  0  0  0
    5.4641   -3.5544    0.0000 H   0  0  0  0  0  0  0  0  0  0  0  0
    5.4641   -2.1744    0.0000 H   0  0  0  0  0  0  0  0  0  0  0  0
    5.5335    0.1105    0.0000 H   0  0  0  0  0  0  0  0  0  0  0  0
    4.7365    0.1105    0.0000 H   0  0  0  0  0  0  0  0  0  0  0  0
    7.3346   -4.3394    0.0000 H   0  0  0  0  0  0  0  0  0  0  0  0
    8.1316   -4.3394    0.0000 H   0  0  0  0  0  0  0  0  0  0  0  0
    8.2700  -10.1744    0.0000 H   0  0  0  0  0  0  0  0  0  0  0  0
    4.5981    3.9456    0.0000 H   0  0  0  0  0  0  0  0  0  0  0  0
    8.9091   -9.9014    0.0000 H   0  0  0  0  0  0  0  0  0  0  0  0
    9.1360   -9.0544    0.0000 H   0  0  0  0  0  0  0  0  0  0  0  0
    8.2891   -8.8275    0.0000 H   0  0  0  0  0  0  0  0  0  0  0  0
    8.2700  -11.1744    0.0000 H   0  0  0  0  0  0  0  0  0  0  0  0
    7.1962  -11.1744    0.0000 H   0  0  0  0  0  0  0  0  0  0  0  0
    2.0000   -5.1744    0.0000 H   0  0  0  0  0  0  0  0  0  0  0  0
    2.8660   -0.6744    0.0000 H   0  0  0  0  0  0  0  0  0  0  0  0
   10.0021   -3.5544    0.0000 H   0  0  0  0  0  0  0  0  0  0  0  0
  1 37  2  0  0  0  0
  2 40  1  0  0  0  0
  2 97  1  0  0  0  0
  3 40  2  0  0  0  0
  4 42  2  0  0  0  0
  5 47  2  0  0  0  0
  6 50  2  0  0  0  0
  7 52  2  0  0  0  0
  8 57  1  0  0  0  0
  8136  1  0  0  0  0
  9 58  2  0  0  0  0
 10 57  2  0  0  0  0
 11 64  2  0  0  0  0
 12 65  2  0  0  0  0
 13 67  2  0  0  0  0
 14 69  2  0  0  0  0
 15 72  1  0  0  0  0
 15142  1  0  0  0  0
 16 74  1  0  0  0  0
 16143  1  0  0  0  0
 17 72  2  0  0  0  0
 18 75  1  0  0  0  0
 18144  1  0  0  0  0
 19 74  2  0  0  0  0
 20 75  2  0  0  0  0
 21 32  1  0  0  0  0
 21 34  1  0  0  0  0
 21 37  1  0  0  0  0
 36 22  1  1  0  0  0
 22 42  1  0  0  0  0
 22 87  1  0  0  0  0
 44 23  1  6  0  0  0
 23 47  1  0  0  0  0
 23 98  1  0  0  0  0
 48 24  1  1  0  0  0
 24 52  1  0  0  0  0
 24104  1  0  0  0  0
 25 50  1  0  0  0  0
 25110  1  0  0  0  0
 25111  1  0  0  0  0
 53 26  1  6  0  0  0
 26 64  1  0  0  0  0
 26113  1  0  0  0  0
 54 27  1  1  0  0  0
 27 69  1  0  0  0  0
 27124  1  0  0  0  0
 56 28  1  1  0  0  0
 28 58  1  0  0  0  0
 28125  1  0  0  0  0
 63 29  1  6  0  0  0
 29 65  1  0  0  0  0
 29129  1  0  0  0  0
 59 30  1  1  0  0  0
 30 67  1  0  0  0  0
 30130  1  0  0  0  0
 71 31  1  6  0  0  0
 31140  1  0  0  0  0
 31141  1  0  0  0  0
 32 33  1  0  0  0  0
 32 40  1  1  0  0  0
 32 76  1  0  0  0  0
 33 35  1  0  0  0  0
 33 77  1  0  0  0  0
 33 78  1  0  0  0  0
 34 35  1  0  0  0  0
 34 79  1  0  0  0  0
 34 80  1  0  0  0  0
 35 81  1  0  0  0  0
 35 82  1  0  0  0  0
 36 37  1  0  0  0  0
 36 38  1  0  0  0  0
 36 83  1  0  0  0  0
 38 39  1  0  0  0  0
 38 41  1  6  0  0  0
 38 84  1  0  0  0  0
 39 43  1  0  0  0  0
 39 85  1  0  0  0  0
 39 86  1  0  0  0  0
 41 88  1  0  0  0  0
 41 89  1  0  0  0  0
 41 90  1  0  0  0  0
 42 44  1  0  0  0  0
 43 91  1  0  0  0  0
 43 92  1  0  0  0  0
 43 93  1  0  0  0  0
 44 45  1  0  0  0  0
 44 94  1  0  0  0  0
 45 46  1  0  0  0  0
 45 95  1  0  0  0  0
 45 96  1  0  0  0  0
 46 50  1  0  0  0  0
 46 99  1  0  0  0  0
 46100  1  0  0  0  0
 47 48  1  0  0  0  0
 48 49  1  0  0  0  0
 48101  1  0  0  0  0
 49 51  1  0  0  0  0
 49102  1  0  0  0  0
 49103  1  0  0  0  0
 51 57  1  0  0  0  0
 51105  1  0  0  0  0
 51106  1  0  0  0  0
 52 53  1  0  0  0  0
 53 60  1  0  0  0  0
 53107  1  0  0  0  0
 54 55  1  0  0  0  0
 54 58  1  0  0  0  0
 54108  1  0  0  0  0
 55 61  1  0  0  0  0
 55 62  1  0  0  0  0
 55109  1  0  0  0  0
 56 65  1  0  0  0  0
 56 66  1  0  0  0  0
 56112  1  0  0  0  0
 59 64  1  0  0  0  0
 59 68  1  0  0  0  0
 59114  1  0  0  0  0
 60115  1  0  0  0  0
 60116  1  0  0  0  0
 60117  1  0  0  0  0
 61118  1  0  0  0  0
 61119  1  0  0  0  0
 61120  1  0  0  0  0
 62121  1  0  0  0  0
 62122  1  0  0  0  0
 62123  1  0  0  0  0
 63 67  1  0  0  0  0
 63 70  1  0  0  0  0
 63126  1  0  0  0  0
 66 72  1  0  0  0  0
 66127  1  0  0  0  0
 66128  1  0  0  0  0
 68 74  1  0  0  0  0
 68131  1  0  0  0  0
 68132  1  0  0  0  0
 69 71  1  0  0  0  0
 70 75  1  0  0  0  0
 70133  1  0  0  0  0
 70134  1  0  0  0  0
 71 73  1  0  0  0  0
 71135  1  0  0  0  0
 73137  1  0  0  0  0
 73138  1  0  0  0  0
 73139  1  0  0  0  0
M  END
> <PUBCHEM_COMPOUND_CID>
3013170

> <PUBCHEM_COMPOUND_CANONICALIZED>
1

> <PUBCHEM_CACTVS_COMPLEXITY>
2170

> <PUBCHEM_CACTVS_HBOND_ACCEPTOR>
21

> <PUBCHEM_CACTVS_HBOND_DONOR>
15

> <PUBCHEM_CACTVS_ROTATABLE_BOND>
33

> <PUBCHEM_CACTVS_SUBSKEYS>
AAADcfB//gAAAAAAAAAAAAAAAAAAAWAAAAAAAAAAAAAAAAAAAAAAHgAQCAAADSjBgAQCCAPAAgAIAAGQGAAAAAAAAAAAAIGIAAACQBoAgCAUQAAGFgCQAAC/FwIKAAAAAAAAAAAAAAAAAAAAAAAAAAAAAA==

> <PUBCHEM_IUPAC_OPENEYE_NAME>
(2S)-1-[(2S,3S)-2-[[(2S)-5-amino-2-[[(2S)-2-[[(2S)-2-[[(2S)-2-[[(2S)-2-[[(2S)-2-[[(2S)-2-[[(2S)-2-aminopropanoyl]amino]-3-methyl-butanoyl]amino]-3-carboxy-propanoyl]amino]-3-carboxy-propanoyl]amino]-3-carboxy-propanoyl]amino]propanoyl]amino]-4-carboxy-butanoyl]amino]-5-oxo-pentanoyl]amino]-3-methyl-pentanoyl]pyrrolidine-2-carboxylic acid

> <PUBCHEM_IUPAC_CAS_NAME>
(2S)-1-[(2S,3S)-2-[[(2S)-5-amino-2-[[(2S)-2-[[(2S)-2-[[(2S)-2-[[(2S)-2-[[(2S)-2-[[(2S)-2-[[(2S)-2-amino-1-oxopropyl]amino]-3-methyl-1-oxobutyl]amino]-3-carboxy-1-oxopropyl]amino]-3-carboxy-1-oxopropyl]amino]-3-carboxy-1-oxopropyl]amino]-1-oxopropyl]amino]-4-carboxy-1-oxobutyl]amino]-1,5-dioxopentyl]amino]-3-methyl-1-oxopentyl]-2-pyrrolidinecarboxylic acid

> <PUBCHEM_IUPAC_NAME_MARKUP>
(2<I>S</I>)-1-[(2<I>S</I>,3<I>S</I>)-2-[[(2<I>S</I>)-5-amino-2-[[(2<I>S</I>)-2-[[(2<I>S</I>)-2-[[(2<I>S</I>)-2-[[(2<I>S</I>)-2-[[(2<I>S</I>)-2-[[(2<I>S</I>)-2-[[(2<I>S</I>)-2-aminopropanoyl]amino]-3-methylbutanoyl]amino]-3-carboxypropanoyl]amino]-3-carboxypropanoyl]amino]-3-carboxypropanoyl]amino]propanoyl]amino]-4-carboxybutanoyl]amino]-5-oxopentanoyl]amino]-3-methylpentanoyl]pyrrolidine-2-carboxylic acid

> <PUBCHEM_IUPAC_NAME>
(2S)-1-[(2S,3S)-2-[[(2S)-5-amino-2-[[(2S)-2-[[(2S)-2-[[(2S)-2-[[(2S)-2-[[(2S)-2-[[(2S)-2-[[(2S)-2-aminopropanoyl]amino]-3-methylbutanoyl]amino]-3-carboxypropanoyl]amino]-3-carboxypropanoyl]amino]-3-carboxypropanoyl]amino]propanoyl]amino]-4-carboxybutanoyl]amino]-5-oxopentanoyl]amino]-3-methylpentanoyl]pyrrolidine-2-carboxylic acid

> <PUBCHEM_IUPAC_SYSTEMATIC_NAME>
(2S)-1-[(2S,3S)-2-[[(2S)-5-azanyl-2-[[(2S)-2-[[(2S)-2-[[(2S)-2-[[(2S)-2-[[(2S)-2-[[(2S)-2-[[(2S)-2-azanylpropanoyl]amino]-3-methyl-butanoyl]amino]-4-oxidanyl-4-oxidanylidene-butanoyl]amino]-4-oxidanyl-4-oxidanylidene-butanoyl]amino]-4-oxidanyl-4-oxidanylidene-butanoyl]amino]propanoyl]amino]-5-oxidanyl-5-oxidanylidene-pentanoyl]amino]-5-oxidanylidene-pentanoyl]amino]-3-methyl-pentanoyl]pyrrolidine-2-carboxylic acid

> <PUBCHEM_IUPAC_TRADITIONAL_NAME>
(2S)-1-[(2S,3S)-2-[[(2S)-5-amino-2-[[(2S)-2-[[(2S)-2-[[(2S)-2-[[(2S)-2-[[(2S)-2-[[(2S)-2-[[(2S)-2-aminopropanoyl]amino]-3-methyl-butanoyl]amino]-3-carboxy-propanoyl]amino]-3-carboxy-propanoyl]amino]-3-carboxy-propanoyl]amino]propanoyl]amino]-4-carboxy-butanoyl]amino]-5-keto-pentanoyl]amino]-3-methyl-pentanoyl]proline

> <PUBCHEM_IUPAC_INCHI>
InChI=1S/C44H69N11O20/c1-7-19(4)34(43(73)55-14-8-9-27(55)44(74)75)54-38(68)22(10-12-28(46)56)49-37(67)23(11-13-29(57)58)48-36(66)21(6)47-39(69)24(15-30(59)60)50-40(70)25(16-31(61)62)51-41(71)26(17-32(63)64)52-42(72)33(18(2)3)53-35(65)20(5)45/h18-27,33-34H,7-17,45H2,1-6H3,(H2,46,56)(H,47,69)(H,48,66)(H,49,67)(H,50,70)(H,51,71)(H,52,72)(H,53,65)(H,54,68)(H,57,58)(H,59,60)(H,61,62)(H,63,64)(H,74,75)/t19-,20-,21-,22-,23-,24-,25-,26-,27-,33-,34-/m0/s1

> <PUBCHEM_IUPAC_INCHIKEY>
AYXDLUGNBPVAHO-VZWDUYIWSA-N

> <PUBCHEM_XLOGP3_AA>
-7

> <PUBCHEM_EXACT_MASS>
1071.47203363

> <PUBCHEM_MOLECULAR_FORMULA>
C44H69N11O20

> <PUBCHEM_MOLECULAR_WEIGHT>
1072.1

> <PUBCHEM_OPENEYE_CAN_SMILES>
CCC(C)C(C(=O)N1CCCC1C(=O)O)NC(=O)C(CCC(=O)N)NC(=O)C(CCC(=O)O)NC(=O)C(C)NC(=O)C(CC(=O)O)NC(=O)C(CC(=O)O)NC(=O)C(CC(=O)O)NC(=O)C(C(C)C)NC(=O)C(C)N

> <PUBCHEM_OPENEYE_ISO_SMILES>
CC[C@H](C)[C@@H](C(=O)N1CCC[C@H]1C(=O)O)NC(=O)[C@H](CCC(=O)N)NC(=O)[C@H](CCC(=O)O)NC(=O)[C@H](C)NC(=O)[C@H](CC(=O)O)NC(=O)[C@H](CC(=O)O)NC(=O)[C@H](CC(=O)O)NC(=O)[C@H](C(C)C)NC(=O)[C@H](C)N

> <PUBCHEM_CACTVS_TPSA>
509

> <PUBCHEM_MONOISOTOPIC_WEIGHT>
1071.47203363

> <PUBCHEM_TOTAL_CHARGE>
0

> <PUBCHEM_HEAVY_ATOM_COUNT>
75

> <PUBCHEM_ATOM_DEF_STEREO_COUNT>
11

> <PUBCHEM_ATOM_UDEF_STEREO_COUNT>
0

> <PUBCHEM_BOND_DEF_STEREO_COUNT>
0

> <PUBCHEM_BOND_UDEF_STEREO_COUNT>
0

> <PUBCHEM_ISOTOPIC_ATOM_COUNT>
0

> <PUBCHEM_COMPONENT_COUNT>
1

> <PUBCHEM_CACTVS_TAUTO_COUNT>
-1

> <PUBCHEM_COORDINATE_TYPE>
1
5
255

> <PUBCHEM_BONDANNOTATIONS>
36  22  5
44  23  6
48  24  5
53  26  6
54  27  5
56  28  5
63  29  6
59  30  5
71  31  6
32  40  5
38  41  6

$$$$
