404771775
  -OEChem-10012202532D

  0  0  0     0  0  0  0  0  0999 V2000
M  END
> <PUBCHEM_SUBSTANCE_ID>
404771775

> <PUBCHEM_SUBSTANCE_VERSION>
1

> <PUBCHEM_EXT_DATASOURCE_NAME>
DrugBank

> <PUBCHEM_EXT_DATASOURCE_REGID>
DB14320

> <PUBCHEM_SUBSTANCE_SYNONYM>
Eucalyptus globulus leaf
Australian Fever Tree Leaf
Blue Gum Leaf
Bluegum Eucalyptus Leaf
Eucalypti Folium
Eucalypti Folium (Eucalyptus Globulus Labill.)
Eucalyptus Extract
Eucalyptus Globulus
Eucalyptus Globulus Leaf Extract
Eucalyptus Globulus Leaf Powder
Eucalyptus Leaf
Eucalyptus Leaf (Eucalyptus Globulus Labill.)
Southern Blue Gum Leaf
Tasmanian Blue Gum Leaf
Tasmanian Bluegum Leaf
DB14320

> <PUBCHEM_XREF_EXT_ID>
DB14320

> <PUBCHEM_EXT_DATASOURCE_URL>
https://www.drugbank.ca

> <PUBCHEM_EXT_SUBSTANCE_URL>
https://www.drugbank.ca/drugs/DB14320

$$$$
