44715524
  -OEChem-10012202052D

 78 81  0     1  0  0  0  0  0999 V2000
    6.8671   -2.5499    0.0000 O   0  0  0  0  0  0  0  0  0  0  0  0
    6.9002    5.3206    0.0000 O   0  0  0  0  0  0  0  0  0  0  0  0
    5.1350   -2.5499    0.0000 O   0  0  0  0  0  0  0  0  0  0  0  0
    4.9003    5.3360    0.0000 O   0  0  0  0  0  0  0  0  0  0  0  0
    6.8671   -4.5499    0.0000 O   0  0  0  0  0  0  0  0  0  0  0  0
    5.1350   -5.5499    0.0000 O   0  0  0  0  0  0  0  0  0  0  0  0
    3.4030   -4.5499    0.0000 O   0  0  0  0  0  0  0  0  0  0  0  0
    2.5369   -3.0499    0.0000 O   0  0  0  0  0  0  0  0  0  0  0  0
    6.8910    0.5193    0.0000 C   0  0  2  0  0  0  0  0  0  0  0  0
    7.7551    0.0160    0.0000 C   0  0  1  0  0  0  0  0  0  0  0  0
    7.7671   -1.0256    0.0000 C   0  0  0  0  0  0  0  0  0  0  0  0
    6.8948    1.5193    0.0000 C   0  0  1  0  0  0  0  0  0  0  0  0
    5.9790    0.0160    0.0000 C   0  0  0  0  0  0  0  0  0  0  0  0
    8.6230    0.5126    0.0000 C   0  0  0  0  0  0  0  0  0  0  0  0
    6.8671   -1.5499    0.0000 C   0  0  1  0  0  0  0  0  0  0  0  0
    7.7628    2.0159    0.0000 C   0  0  0  0  0  0  0  0  0  0  0  0
    5.9670   -1.0256    0.0000 C   0  0  0  0  0  0  0  0  0  0  0  0
    5.9868    2.0296    0.0000 C   0  0  0  0  0  0  0  0  0  0  0  0
    8.6269    1.5126    0.0000 C   0  0  0  0  0  0  0  0  0  0  0  0
    6.0269    1.0226    0.0000 C   0  0  0  0  0  0  0  0  0  0  0  0
    6.8869    3.5886    0.0000 C   0  0  1  0  0  0  0  0  0  0  0  0
    5.9828    3.0712    0.0000 C   0  0  0  0  0  0  0  0  0  0  0  0
    8.7671   -1.0179    0.0000 C   0  0  0  0  0  0  0  0  0  0  0  0
    8.2738   -1.8878    0.0000 C   0  0  0  0  0  0  0  0  0  0  0  0
    7.7829    3.0574    0.0000 C   0  0  0  0  0  0  0  0  0  0  0  0
    6.3936    4.4584    0.0000 C   0  0  2  0  0  0  0  0  0  0  0  0
    7.3935    4.4507    0.0000 C   0  0  0  0  0  0  0  0  0  0  0  0
    6.0010   -3.0499    0.0000 C   0  0  2  0  0  0  0  0  0  0  0  0
    5.3936    4.4662    0.0000 C   0  0  0  0  0  0  0  0  0  0  0  0
    6.0010   -4.0499    0.0000 C   0  0  1  0  0  0  0  0  0  0  0  0
    5.1350   -4.5499    0.0000 C   0  0  2  0  0  0  0  0  0  0  0  0
    4.2690   -3.0499    0.0000 C   0  0  1  0  0  0  0  0  0  0  0  0
    4.2690   -4.0499    0.0000 C   0  0  1  0  0  0  0  0  0  0  0  0
    3.4030   -2.5499    0.0000 C   0  0  0  0  0  0  0  0  0  0  0  0
    8.4928   -0.4062    0.0000 H   0  0  0  0  0  0  0  0  0  0  0  0
    7.6293    1.0914    0.0000 H   0  0  0  0  0  0  0  0  0  0  0  0
    5.7768    0.6020    0.0000 H   0  0  0  0  0  0  0  0  0  0  0  0
    5.3670   -0.0831    0.0000 H   0  0  0  0  0  0  0  0  0  0  0  0
    8.8328   -0.0708    0.0000 H   0  0  0  0  0  0  0  0  0  0  0  0
    9.2340    0.6179    0.0000 H   0  0  0  0  0  0  0  0  0  0  0  0
    7.4046   -1.8589    0.0000 H   0  0  0  0  0  0  0  0  0  0  0  0
    5.3574   -0.9125    0.0000 H   0  0  0  0  0  0  0  0  0  0  0  0
    5.7512   -1.6068    0.0000 H   0  0  0  0  0  0  0  0  0  0  0  0
    5.3755    2.1334    0.0000 H   0  0  0  0  0  0  0  0  0  0  0  0
    5.7800    1.4451    0.0000 H   0  0  0  0  0  0  0  0  0  0  0  0
    9.2370    1.4026    0.0000 H   0  0  0  0  0  0  0  0  0  0  0  0
    8.8412    2.0944    0.0000 H   0  0  0  0  0  0  0  0  0  0  0  0
    6.3390    1.5584    0.0000 H   0  0  0  0  0  0  0  0  0  0  0  0
    5.4912    1.3347    0.0000 H   0  0  0  0  0  0  0  0  0  0  0  0
    5.7148    0.4869    0.0000 H   0  0  0  0  0  0  0  0  0  0  0  0
    5.7715    3.6541    0.0000 H   0  0  0  0  0  0  0  0  0  0  0  0
    5.3724    2.9628    0.0000 H   0  0  0  0  0  0  0  0  0  0  0  0
    8.7719   -1.6379    0.0000 H   0  0  0  0  0  0  0  0  0  0  0  0
    9.3871   -1.0131    0.0000 H   0  0  0  0  0  0  0  0  0  0  0  0
    8.7623   -0.3979    0.0000 H   0  0  0  0  0  0  0  0  0  0  0  0
    7.7393   -2.2019    0.0000 H   0  0  0  0  0  0  0  0  0  0  0  0
    8.5879   -2.4223    0.0000 H   0  0  0  0  0  0  0  0  0  0  0  0
    8.8083   -1.5736    0.0000 H   0  0  0  0  0  0  0  0  0  0  0  0
    8.3245    3.3591    0.0000 H   0  0  0  0  0  0  0  0  0  0  0  0
    6.0877    4.9978    0.0000 H   0  0  0  0  0  0  0  0  0  0  0  0
    7.9281    4.1366    0.0000 H   0  0  0  0  0  0  0  0  0  0  0  0
    7.7077    4.9853    0.0000 H   0  0  0  0  0  0  0  0  0  0  0  0
    6.8590    4.7649    0.0000 H   0  0  0  0  0  0  0  0  0  0  0  0
    6.0010   -2.4299    0.0000 H   0  0  0  0  0  0  0  0  0  0  0  0
    4.8094    4.2586    0.0000 H   0  0  0  0  0  0  0  0  0  0  0  0
    5.4965    3.8548    0.0000 H   0  0  0  0  0  0  0  0  0  0  0  0
    6.0010   -4.6699    0.0000 H   0  0  0  0  0  0  0  0  0  0  0  0
    6.5944    5.8599    0.0000 H   0  0  0  0  0  0  0  0  0  0  0  0
    4.5981   -4.8599    0.0000 H   0  0  0  0  0  0  0  0  0  0  0  0
    4.2690   -2.4299    0.0000 H   0  0  0  0  0  0  0  0  0  0  0  0
    4.2690   -4.6699    0.0000 H   0  0  0  0  0  0  0  0  0  0  0  0
    4.2803    5.3408    0.0000 H   0  0  0  0  0  0  0  0  0  0  0  0
    6.8671   -5.1699    0.0000 H   0  0  0  0  0  0  0  0  0  0  0  0
    3.8015   -2.0750    0.0000 H   0  0  0  0  0  0  0  0  0  0  0  0
    3.0044   -2.0750    0.0000 H   0  0  0  0  0  0  0  0  0  0  0  0
    4.5981   -5.8599    0.0000 H   0  0  0  0  0  0  0  0  0  0  0  0
    3.4030   -5.1699    0.0000 H   0  0  0  0  0  0  0  0  0  0  0  0
    2.0000   -2.7399    0.0000 H   0  0  0  0  0  0  0  0  0  0  0  0
 15  1  1  6  0  0  0
 28  1  1  1  0  0  0
 26  2  1  6  0  0  0
  2 68  1  0  0  0  0
  3 28  1  0  0  0  0
  3 32  1  0  0  0  0
  4 29  1  0  0  0  0
  4 72  1  0  0  0  0
 30  5  1  6  0  0  0
  5 73  1  0  0  0  0
 31  6  1  1  0  0  0
  6 76  1  0  0  0  0
 33  7  1  6  0  0  0
  7 77  1  0  0  0  0
  8 34  1  0  0  0  0
  8 78  1  0  0  0  0
  9 10  1  0  0  0  0
  9 12  1  0  0  0  0
  9 13  1  0  0  0  0
  9 20  1  6  0  0  0
 10 11  1  0  0  0  0
 10 14  1  0  0  0  0
 10 35  1  1  0  0  0
 11 15  1  0  0  0  0
 11 23  1  0  0  0  0
 11 24  1  0  0  0  0
 12 16  1  0  0  0  0
 12 18  1  0  0  0  0
 12 36  1  1  0  0  0
 13 17  1  0  0  0  0
 13 37  1  0  0  0  0
 13 38  1  0  0  0  0
 14 19  1  0  0  0  0
 14 39  1  0  0  0  0
 14 40  1  0  0  0  0
 15 17  1  0  0  0  0
 15 41  1  0  0  0  0
 16 19  1  0  0  0  0
 16 25  2  0  0  0  0
 17 42  1  0  0  0  0
 17 43  1  0  0  0  0
 18 22  1  0  0  0  0
 18 44  1  0  0  0  0
 18 45  1  0  0  0  0
 19 46  1  0  0  0  0
 19 47  1  0  0  0  0
 20 48  1  0  0  0  0
 20 49  1  0  0  0  0
 20 50  1  0  0  0  0
 21 22  1  0  0  0  0
 21 25  1  0  0  0  0
 21 26  1  0  0  0  0
 21 27  1  1  0  0  0
 22 51  1  0  0  0  0
 22 52  1  0  0  0  0
 23 53  1  0  0  0  0
 23 54  1  0  0  0  0
 23 55  1  0  0  0  0
 24 56  1  0  0  0  0
 24 57  1  0  0  0  0
 24 58  1  0  0  0  0
 25 59  1  0  0  0  0
 26 29  1  0  0  0  0
 26 60  1  0  0  0  0
 27 61  1  0  0  0  0
 27 62  1  0  0  0  0
 27 63  1  0  0  0  0
 28 30  1  0  0  0  0
 28 64  1  0  0  0  0
 29 65  1  0  0  0  0
 29 66  1  0  0  0  0
 30 31  1  0  0  0  0
 30 67  1  0  0  0  0
 31 33  1  0  0  0  0
 31 69  1  0  0  0  0
 32 33  1  0  0  0  0
 32 34  1  1  0  0  0
 32 70  1  0  0  0  0
 33 71  1  0  0  0  0
 34 74  1  0  0  0  0
 34 75  1  0  0  0  0
M  END
> <PUBCHEM_COMPOUND_CID>
44715524

> <PUBCHEM_COMPOUND_CANONICALIZED>
1

> <PUBCHEM_CACTVS_COMPLEXITY>
770

> <PUBCHEM_CACTVS_HBOND_ACCEPTOR>
8

> <PUBCHEM_CACTVS_HBOND_DONOR>
6

> <PUBCHEM_CACTVS_ROTATABLE_BOND>
5

> <PUBCHEM_CACTVS_SUBSKEYS>
AAADcfB4PAAAAAAAAAAAAAAAAAAAAAAAAAA0YIEAAAAAAADAAAAAGgAACAAADxSwgAMCCAAABgCAAiBCAAAAAAAgAAAACAAAAAgREAIAAQAiQAAFwAAPAAPA4PwPgAAAAAAAAABAAAYAADAAAAAAAAAAAA==

> <PUBCHEM_IUPAC_OPENEYE_NAME>
(2R,3R,4S,5S,6R)-2-[[(2R,4aS,4bR,7S,10aS)-7-[(1R)-1,2-dihydroxyethyl]-1,1,4a,7-tetramethyl-3,4,4b,5,6,9,10,10a-octahydro-2H-phenanthren-2-yl]oxy]-6-(hydroxymethyl)tetrahydropyran-3,4,5-triol

> <PUBCHEM_IUPAC_CAS_NAME>
(2R,3R,4S,5S,6R)-2-[[(2R,4aS,4bR,7S,10aS)-7-[(1R)-1,2-dihydroxyethyl]-1,1,4a,7-tetramethyl-3,4,4b,5,6,9,10,10a-octahydro-2H-phenanthren-2-yl]oxy]-6-(hydroxymethyl)oxane-3,4,5-triol

> <PUBCHEM_IUPAC_NAME_MARKUP>
(2<I>R</I>,3<I>R</I>,4<I>S</I>,5<I>S</I>,6<I>R</I>)-2-[[(2<I>R</I>,4<I>a</I><I>S</I>,4<I>b</I><I>R</I>,7<I>S</I>,10<I>a</I><I>S</I>)-7-[(1<I>R</I>)-1,2-dihydroxyethyl]-1,1,4<I>a</I>,7-tetramethyl-3,4,4<I>b</I>,5,6,9,10,10<I>a</I>-octahydro-2<I>H</I>-phenanthren-2-yl]oxy]-6-(hydroxymethyl)oxane-3,4,5-triol

> <PUBCHEM_IUPAC_NAME>
(2R,3R,4S,5S,6R)-2-[[(2R,4aS,4bR,7S,10aS)-7-[(1R)-1,2-dihydroxyethyl]-1,1,4a,7-tetramethyl-3,4,4b,5,6,9,10,10a-octahydro-2H-phenanthren-2-yl]oxy]-6-(hydroxymethyl)oxane-3,4,5-triol

> <PUBCHEM_IUPAC_SYSTEMATIC_NAME>
(2R,3R,4S,5S,6R)-2-[[(2R,4aS,4bR,7S,10aS)-7-[(1R)-1,2-bis(oxidanyl)ethyl]-1,1,4a,7-tetramethyl-3,4,4b,5,6,9,10,10a-octahydro-2H-phenanthren-2-yl]oxy]-6-(hydroxymethyl)oxane-3,4,5-triol

> <PUBCHEM_IUPAC_TRADITIONAL_NAME>
(2R,3R,4S,5S,6R)-2-[[(2R,4aS,4bR,7S,10aS)-7-[(1R)-1,2-dihydroxyethyl]-1,1,4a,7-tetramethyl-3,4,4b,5,6,9,10,10a-octahydro-2H-phenanthren-2-yl]oxy]-6-methylol-tetrahydropyran-3,4,5-triol

> <PUBCHEM_IUPAC_INCHI>
InChI=1S/C26H44O8/c1-24(2)17-6-5-14-11-25(3,18(29)13-28)9-7-15(14)26(17,4)10-8-19(24)34-23-22(32)21(31)20(30)16(12-27)33-23/h11,15-23,27-32H,5-10,12-13H2,1-4H3/t15-,16-,17-,18+,19-,20-,21+,22-,23+,25+,26+/m1/s1

> <PUBCHEM_IUPAC_INCHIKEY>
QWWPCQGHWWNGET-LCVVDEIYSA-N

> <PUBCHEM_XLOGP3_AA>
1.6

> <PUBCHEM_EXACT_MASS>
484.30361836

> <PUBCHEM_MOLECULAR_FORMULA>
C26H44O8

> <PUBCHEM_MOLECULAR_WEIGHT>
484.6

> <PUBCHEM_OPENEYE_CAN_SMILES>
CC1(C2CCC3=CC(CCC3C2(CCC1OC4C(C(C(C(O4)CO)O)O)O)C)(C)C(CO)O)C

> <PUBCHEM_OPENEYE_ISO_SMILES>
C[C@@]1(CC[C@@H]2C(=C1)CC[C@H]3[C@]2(CC[C@H](C3(C)C)O[C@H]4[C@@H]([C@H]([C@@H]([C@H](O4)CO)O)O)O)C)[C@H](CO)O

> <PUBCHEM_CACTVS_TPSA>
140

> <PUBCHEM_MONOISOTOPIC_WEIGHT>
484.30361836

> <PUBCHEM_TOTAL_CHARGE>
0

> <PUBCHEM_HEAVY_ATOM_COUNT>
34

> <PUBCHEM_ATOM_DEF_STEREO_COUNT>
11

> <PUBCHEM_ATOM_UDEF_STEREO_COUNT>
0

> <PUBCHEM_BOND_DEF_STEREO_COUNT>
0

> <PUBCHEM_BOND_UDEF_STEREO_COUNT>
0

> <PUBCHEM_ISOTOPIC_ATOM_COUNT>
0

> <PUBCHEM_COMPONENT_COUNT>
1

> <PUBCHEM_CACTVS_TAUTO_COUNT>
1

> <PUBCHEM_COORDINATE_TYPE>
1
5
255

> <PUBCHEM_BONDANNOTATIONS>
15  1  6
28  1  5
10  35  5
12  36  5
26  2  6
21  27  5
32  34  5
30  5  6
31  6  5
33  7  6
9  20  6

$$$$
12309042
  -OEChem-10012202052D

 78 81  0     1  0  0  0  0  0999 V2000
    6.8671   -2.5499    0.0000 O   0  0  0  0  0  0  0  0  0  0  0  0
    6.9002    5.3206    0.0000 O   0  0  0  0  0  0  0  0  0  0  0  0
    5.1350   -2.5499    0.0000 O   0  0  0  0  0  0  0  0  0  0  0  0
    4.9003    5.3360    0.0000 O   0  0  0  0  0  0  0  0  0  0  0  0
    6.8671   -4.5499    0.0000 O   0  0  0  0  0  0  0  0  0  0  0  0
    5.1350   -5.5499    0.0000 O   0  0  0  0  0  0  0  0  0  0  0  0
    3.4030   -4.5499    0.0000 O   0  0  0  0  0  0  0  0  0  0  0  0
    2.5369   -3.0499    0.0000 O   0  0  0  0  0  0  0  0  0  0  0  0
    6.8910    0.5193    0.0000 C   0  0  3  0  0  0  0  0  0  0  0  0
    7.7551    0.0160    0.0000 C   0  0  3  0  0  0  0  0  0  0  0  0
    7.7671   -1.0256    0.0000 C   0  0  0  0  0  0  0  0  0  0  0  0
    6.8948    1.5193    0.0000 C   0  0  3  0  0  0  0  0  0  0  0  0
    5.9790    0.0160    0.0000 C   0  0  0  0  0  0  0  0  0  0  0  0
    8.6230    0.5126    0.0000 C   0  0  0  0  0  0  0  0  0  0  0  0
    6.8671   -1.5499    0.0000 C   0  0  3  0  0  0  0  0  0  0  0  0
    7.7628    2.0159    0.0000 C   0  0  0  0  0  0  0  0  0  0  0  0
    5.9670   -1.0256    0.0000 C   0  0  0  0  0  0  0  0  0  0  0  0
    5.9868    2.0296    0.0000 C   0  0  0  0  0  0  0  0  0  0  0  0
    8.6269    1.5126    0.0000 C   0  0  0  0  0  0  0  0  0  0  0  0
    6.0269    1.0226    0.0000 C   0  0  0  0  0  0  0  0  0  0  0  0
    6.8869    3.5886    0.0000 C   0  0  3  0  0  0  0  0  0  0  0  0
    5.9828    3.0712    0.0000 C   0  0  0  0  0  0  0  0  0  0  0  0
    8.7671   -1.0179    0.0000 C   0  0  0  0  0  0  0  0  0  0  0  0
    8.2738   -1.8878    0.0000 C   0  0  0  0  0  0  0  0  0  0  0  0
    7.7829    3.0574    0.0000 C   0  0  0  0  0  0  0  0  0  0  0  0
    6.3936    4.4584    0.0000 C   0  0  3  0  0  0  0  0  0  0  0  0
    7.3935    4.4507    0.0000 C   0  0  0  0  0  0  0  0  0  0  0  0
    6.0010   -3.0499    0.0000 C   0  0  3  0  0  0  0  0  0  0  0  0
    5.3936    4.4662    0.0000 C   0  0  0  0  0  0  0  0  0  0  0  0
    6.0010   -4.0499    0.0000 C   0  0  3  0  0  0  0  0  0  0  0  0
    5.1350   -4.5499    0.0000 C   0  0  3  0  0  0  0  0  0  0  0  0
    4.2690   -3.0499    0.0000 C   0  0  3  0  0  0  0  0  0  0  0  0
    4.2690   -4.0499    0.0000 C   0  0  3  0  0  0  0  0  0  0  0  0
    3.4030   -2.5499    0.0000 C   0  0  0  0  0  0  0  0  0  0  0  0
    8.2932   -0.2920    0.0000 H   0  0  0  0  0  0  0  0  0  0  0  0
    7.4306    1.2072    0.0000 H   0  0  0  0  0  0  0  0  0  0  0  0
    5.7768    0.6020    0.0000 H   0  0  0  0  0  0  0  0  0  0  0  0
    5.3670   -0.0831    0.0000 H   0  0  0  0  0  0  0  0  0  0  0  0
    8.8328   -0.0708    0.0000 H   0  0  0  0  0  0  0  0  0  0  0  0
    9.2340    0.6179    0.0000 H   0  0  0  0  0  0  0  0  0  0  0  0
    7.4046   -1.8589    0.0000 H   0  0  0  0  0  0  0  0  0  0  0  0
    5.3574   -0.9125    0.0000 H   0  0  0  0  0  0  0  0  0  0  0  0
    5.7512   -1.6068    0.0000 H   0  0  0  0  0  0  0  0  0  0  0  0
    5.3755    2.1334    0.0000 H   0  0  0  0  0  0  0  0  0  0  0  0
    5.7800    1.4451    0.0000 H   0  0  0  0  0  0  0  0  0  0  0  0
    9.2370    1.4026    0.0000 H   0  0  0  0  0  0  0  0  0  0  0  0
    8.8412    2.0944    0.0000 H   0  0  0  0  0  0  0  0  0  0  0  0
    6.3390    1.5584    0.0000 H   0  0  0  0  0  0  0  0  0  0  0  0
    5.4912    1.3347    0.0000 H   0  0  0  0  0  0  0  0  0  0  0  0
    5.7148    0.4869    0.0000 H   0  0  0  0  0  0  0  0  0  0  0  0
    5.7715    3.6541    0.0000 H   0  0  0  0  0  0  0  0  0  0  0  0
    5.3724    2.9628    0.0000 H   0  0  0  0  0  0  0  0  0  0  0  0
    8.7719   -1.6379    0.0000 H   0  0  0  0  0  0  0  0  0  0  0  0
    9.3871   -1.0131    0.0000 H   0  0  0  0  0  0  0  0  0  0  0  0
    8.7623   -0.3979    0.0000 H   0  0  0  0  0  0  0  0  0  0  0  0
    7.7393   -2.2019    0.0000 H   0  0  0  0  0  0  0  0  0  0  0  0
    8.5879   -2.4223    0.0000 H   0  0  0  0  0  0  0  0  0  0  0  0
    8.8083   -1.5736    0.0000 H   0  0  0  0  0  0  0  0  0  0  0  0
    8.3245    3.3591    0.0000 H   0  0  0  0  0  0  0  0  0  0  0  0
    6.0877    4.9978    0.0000 H   0  0  0  0  0  0  0  0  0  0  0  0
    7.9281    4.1366    0.0000 H   0  0  0  0  0  0  0  0  0  0  0  0
    7.7077    4.9853    0.0000 H   0  0  0  0  0  0  0  0  0  0  0  0
    6.8590    4.7649    0.0000 H   0  0  0  0  0  0  0  0  0  0  0  0
    6.0010   -2.4299    0.0000 H   0  0  0  0  0  0  0  0  0  0  0  0
    4.8094    4.2586    0.0000 H   0  0  0  0  0  0  0  0  0  0  0  0
    5.4965    3.8548    0.0000 H   0  0  0  0  0  0  0  0  0  0  0  0
    6.0010   -4.6699    0.0000 H   0  0  0  0  0  0  0  0  0  0  0  0
    6.5944    5.8599    0.0000 H   0  0  0  0  0  0  0  0  0  0  0  0
    4.5981   -4.8599    0.0000 H   0  0  0  0  0  0  0  0  0  0  0  0
    4.2690   -2.4299    0.0000 H   0  0  0  0  0  0  0  0  0  0  0  0
    4.2690   -4.6699    0.0000 H   0  0  0  0  0  0  0  0  0  0  0  0
    4.2803    5.3408    0.0000 H   0  0  0  0  0  0  0  0  0  0  0  0
    6.8671   -5.1699    0.0000 H   0  0  0  0  0  0  0  0  0  0  0  0
    3.8015   -2.0750    0.0000 H   0  0  0  0  0  0  0  0  0  0  0  0
    3.0044   -2.0750    0.0000 H   0  0  0  0  0  0  0  0  0  0  0  0
    4.5981   -5.8599    0.0000 H   0  0  0  0  0  0  0  0  0  0  0  0
    3.4030   -5.1699    0.0000 H   0  0  0  0  0  0  0  0  0  0  0  0
    2.0000   -2.7399    0.0000 H   0  0  0  0  0  0  0  0  0  0  0  0
  1 15  1  0  0  0  0
  1 28  1  0  0  0  0
  2 26  1  0  0  0  0
  2 68  1  0  0  0  0
  3 28  1  0  0  0  0
  3 32  1  0  0  0  0
  4 29  1  0  0  0  0
  4 72  1  0  0  0  0
  5 30  1  0  0  0  0
  5 73  1  0  0  0  0
  6 31  1  0  0  0  0
  6 76  1  0  0  0  0
  7 33  1  0  0  0  0
  7 77  1  0  0  0  0
  8 34  1  0  0  0  0
  8 78  1  0  0  0  0
  9 10  1  0  0  0  0
  9 12  1  0  0  0  0
  9 13  1  0  0  0  0
  9 20  1  0  0  0  0
 10 11  1  0  0  0  0
 10 14  1  0  0  0  0
 10 35  1  0  0  0  0
 11 15  1  0  0  0  0
 11 23  1  0  0  0  0
 11 24  1  0  0  0  0
 12 16  1  0  0  0  0
 12 18  1  0  0  0  0
 12 36  1  0  0  0  0
 13 17  1  0  0  0  0
 13 37  1  0  0  0  0
 13 38  1  0  0  0  0
 14 19  1  0  0  0  0
 14 39  1  0  0  0  0
 14 40  1  0  0  0  0
 15 17  1  0  0  0  0
 15 41  1  0  0  0  0
 16 19  1  0  0  0  0
 16 25  2  0  0  0  0
 17 42  1  0  0  0  0
 17 43  1  0  0  0  0
 18 22  1  0  0  0  0
 18 44  1  0  0  0  0
 18 45  1  0  0  0  0
 19 46  1  0  0  0  0
 19 47  1  0  0  0  0
 20 48  1  0  0  0  0
 20 49  1  0  0  0  0
 20 50  1  0  0  0  0
 21 22  1  0  0  0  0
 21 25  1  0  0  0  0
 21 26  1  0  0  0  0
 21 27  1  0  0  0  0
 22 51  1  0  0  0  0
 22 52  1  0  0  0  0
 23 53  1  0  0  0  0
 23 54  1  0  0  0  0
 23 55  1  0  0  0  0
 24 56  1  0  0  0  0
 24 57  1  0  0  0  0
 24 58  1  0  0  0  0
 25 59  1  0  0  0  0
 26 29  1  0  0  0  0
 26 60  1  0  0  0  0
 27 61  1  0  0  0  0
 27 62  1  0  0  0  0
 27 63  1  0  0  0  0
 28 30  1  0  0  0  0
 28 64  1  0  0  0  0
 29 65  1  0  0  0  0
 29 66  1  0  0  0  0
 30 31  1  0  0  0  0
 30 67  1  0  0  0  0
 31 33  1  0  0  0  0
 31 69  1  0  0  0  0
 32 33  1  0  0  0  0
 32 34  1  0  0  0  0
 32 70  1  0  0  0  0
 33 71  1  0  0  0  0
 34 74  1  0  0  0  0
 34 75  1  0  0  0  0
M  END
> <PUBCHEM_COMPOUND_CID>
12309042

> <PUBCHEM_COMPOUND_CANONICALIZED>
1

> <PUBCHEM_CACTVS_COMPLEXITY>
770

> <PUBCHEM_CACTVS_HBOND_ACCEPTOR>
8

> <PUBCHEM_CACTVS_HBOND_DONOR>
6

> <PUBCHEM_CACTVS_ROTATABLE_BOND>
5

> <PUBCHEM_CACTVS_SUBSKEYS>
AAADcfB4PAAAAAAAAAAAAAAAAAAAAAAAAAA0YIEAAAAAAADAAAAAGgAACAAADxSwgAMCCAAABgCAAiBCAAAAAAAgAAAACAAAAAgREAIAAQAiQAAFwAAPAAPA4PwPgAAAAAAAAABAAAYAADAAAAAAAAAAAA==

> <PUBCHEM_IUPAC_OPENEYE_NAME>
2-[[7-(1,2-dihydroxyethyl)-1,1,4a,7-tetramethyl-3,4,4b,5,6,9,10,10a-octahydro-2H-phenanthren-2-yl]oxy]-6-(hydroxymethyl)tetrahydropyran-3,4,5-triol

> <PUBCHEM_IUPAC_CAS_NAME>
2-[[7-(1,2-dihydroxyethyl)-1,1,4a,7-tetramethyl-3,4,4b,5,6,9,10,10a-octahydro-2H-phenanthren-2-yl]oxy]-6-(hydroxymethyl)oxane-3,4,5-triol

> <PUBCHEM_IUPAC_NAME_MARKUP>
2-[[7-(1,2-dihydroxyethyl)-1,1,4<I>a</I>,7-tetramethyl-3,4,4<I>b</I>,5,6,9,10,10<I>a</I>-octahydro-2<I>H</I>-phenanthren-2-yl]oxy]-6-(hydroxymethyl)oxane-3,4,5-triol

> <PUBCHEM_IUPAC_NAME>
2-[[7-(1,2-dihydroxyethyl)-1,1,4a,7-tetramethyl-3,4,4b,5,6,9,10,10a-octahydro-2H-phenanthren-2-yl]oxy]-6-(hydroxymethyl)oxane-3,4,5-triol

> <PUBCHEM_IUPAC_SYSTEMATIC_NAME>
2-[[7-[1,2-bis(oxidanyl)ethyl]-1,1,4a,7-tetramethyl-3,4,4b,5,6,9,10,10a-octahydro-2H-phenanthren-2-yl]oxy]-6-(hydroxymethyl)oxane-3,4,5-triol

> <PUBCHEM_IUPAC_TRADITIONAL_NAME>
2-[[7-(1,2-dihydroxyethyl)-1,1,4a,7-tetramethyl-3,4,4b,5,6,9,10,10a-octahydro-2H-phenanthren-2-yl]oxy]-6-methylol-tetrahydropyran-3,4,5-triol

> <PUBCHEM_IUPAC_INCHI>
InChI=1S/C26H44O8/c1-24(2)17-6-5-14-11-25(3,18(29)13-28)9-7-15(14)26(17,4)10-8-19(24)34-23-22(32)21(31)20(30)16(12-27)33-23/h11,15-23,27-32H,5-10,12-13H2,1-4H3

> <PUBCHEM_IUPAC_INCHIKEY>
QWWPCQGHWWNGET-UHFFFAOYSA-N

> <PUBCHEM_XLOGP3_AA>
1.6

> <PUBCHEM_EXACT_MASS>
484.30361836

> <PUBCHEM_MOLECULAR_FORMULA>
C26H44O8

> <PUBCHEM_MOLECULAR_WEIGHT>
484.6

> <PUBCHEM_OPENEYE_CAN_SMILES>
CC1(C2CCC3=CC(CCC3C2(CCC1OC4C(C(C(C(O4)CO)O)O)O)C)(C)C(CO)O)C

> <PUBCHEM_OPENEYE_ISO_SMILES>
CC1(C2CCC3=CC(CCC3C2(CCC1OC4C(C(C(C(O4)CO)O)O)O)C)(C)C(CO)O)C

> <PUBCHEM_CACTVS_TPSA>
140

> <PUBCHEM_MONOISOTOPIC_WEIGHT>
484.30361836

> <PUBCHEM_TOTAL_CHARGE>
0

> <PUBCHEM_HEAVY_ATOM_COUNT>
34

> <PUBCHEM_ATOM_DEF_STEREO_COUNT>
0

> <PUBCHEM_ATOM_UDEF_STEREO_COUNT>
11

> <PUBCHEM_BOND_DEF_STEREO_COUNT>
0

> <PUBCHEM_BOND_UDEF_STEREO_COUNT>
0

> <PUBCHEM_ISOTOPIC_ATOM_COUNT>
0

> <PUBCHEM_COMPONENT_COUNT>
1

> <PUBCHEM_CACTVS_TAUTO_COUNT>
-1

> <PUBCHEM_COORDINATE_TYPE>
1
5
255

> <PUBCHEM_BONDANNOTATIONS>
15  1  3
28  1  3
10  14  3
12  18  3
26  2  3
21  27  3
32  34  3
30  5  3
31  6  3
33  7  3
9  20  3

$$$$
146159280
  -OEChem-10012202052D

 78 81  0     1  0  0  0  0  0999 V2000
    6.8671   -2.5499    0.0000 O   0  0  0  0  0  0  0  0  0  0  0  0
    6.9002    5.3206    0.0000 O   0  0  0  0  0  0  0  0  0  0  0  0
    5.1350   -2.5499    0.0000 O   0  0  0  0  0  0  0  0  0  0  0  0
    4.9003    5.3360    0.0000 O   0  0  0  0  0  0  0  0  0  0  0  0
    6.8671   -4.5499    0.0000 O   0  0  0  0  0  0  0  0  0  0  0  0
    5.1350   -5.5499    0.0000 O   0  0  0  0  0  0  0  0  0  0  0  0
    3.4030   -4.5499    0.0000 O   0  0  0  0  0  0  0  0  0  0  0  0
    2.5369   -3.0499    0.0000 O   0  0  0  0  0  0  0  0  0  0  0  0
    6.8910    0.5193    0.0000 C   0  0  2  0  0  0  0  0  0  0  0  0
    7.7551    0.0160    0.0000 C   0  0  3  0  0  0  0  0  0  0  0  0
    7.7671   -1.0256    0.0000 C   0  0  0  0  0  0  0  0  0  0  0  0
    6.8948    1.5193    0.0000 C   0  0  3  0  0  0  0  0  0  0  0  0
    5.9790    0.0160    0.0000 C   0  0  0  0  0  0  0  0  0  0  0  0
    8.6230    0.5126    0.0000 C   0  0  0  0  0  0  0  0  0  0  0  0
    6.8671   -1.5499    0.0000 C   0  0  3  0  0  0  0  0  0  0  0  0
    7.7628    2.0159    0.0000 C   0  0  0  0  0  0  0  0  0  0  0  0
    5.9670   -1.0256    0.0000 C   0  0  0  0  0  0  0  0  0  0  0  0
    5.9868    2.0296    0.0000 C   0  0  0  0  0  0  0  0  0  0  0  0
    8.6269    1.5126    0.0000 C   0  0  0  0  0  0  0  0  0  0  0  0
    6.0269    1.0226    0.0000 C   0  0  0  0  0  0  0  0  0  0  0  0
    6.8869    3.5886    0.0000 C   0  0  1  0  0  0  0  0  0  0  0  0
    5.9828    3.0712    0.0000 C   0  0  0  0  0  0  0  0  0  0  0  0
    8.7671   -1.0179    0.0000 C   0  0  0  0  0  0  0  0  0  0  0  0
    8.2738   -1.8878    0.0000 C   0  0  0  0  0  0  0  0  0  0  0  0
    7.7829    3.0574    0.0000 C   0  0  0  0  0  0  0  0  0  0  0  0
    6.3936    4.4584    0.0000 C   0  0  3  0  0  0  0  0  0  0  0  0
    7.3935    4.4507    0.0000 C   0  0  0  0  0  0  0  0  0  0  0  0
    6.0010   -3.0499    0.0000 C   0  0  3  0  0  0  0  0  0  0  0  0
    5.3936    4.4662    0.0000 C   0  0  0  0  0  0  0  0  0  0  0  0
    6.0010   -4.0499    0.0000 C   0  0  3  0  0  0  0  0  0  0  0  0
    5.1350   -4.5499    0.0000 C   0  0  3  0  0  0  0  0  0  0  0  0
    4.2690   -3.0499    0.0000 C   0  0  3  0  0  0  0  0  0  0  0  0
    4.2690   -4.0499    0.0000 C   0  0  3  0  0  0  0  0  0  0  0  0
    3.4030   -2.5499    0.0000 C   0  0  0  0  0  0  0  0  0  0  0  0
    8.2932   -0.2920    0.0000 H   0  0  0  0  0  0  0  0  0  0  0  0
    7.4306    1.2072    0.0000 H   0  0  0  0  0  0  0  0  0  0  0  0
    5.7768    0.6020    0.0000 H   0  0  0  0  0  0  0  0  0  0  0  0
    5.3670   -0.0831    0.0000 H   0  0  0  0  0  0  0  0  0  0  0  0
    8.8328   -0.0708    0.0000 H   0  0  0  0  0  0  0  0  0  0  0  0
    9.2340    0.6179    0.0000 H   0  0  0  0  0  0  0  0  0  0  0  0
    7.4046   -1.8589    0.0000 H   0  0  0  0  0  0  0  0  0  0  0  0
    5.3574   -0.9125    0.0000 H   0  0  0  0  0  0  0  0  0  0  0  0
    5.7512   -1.6068    0.0000 H   0  0  0  0  0  0  0  0  0  0  0  0
    5.3755    2.1334    0.0000 H   0  0  0  0  0  0  0  0  0  0  0  0
    5.7800    1.4451    0.0000 H   0  0  0  0  0  0  0  0  0  0  0  0
    9.2370    1.4026    0.0000 H   0  0  0  0  0  0  0  0  0  0  0  0
    8.8412    2.0944    0.0000 H   0  0  0  0  0  0  0  0  0  0  0  0
    6.3390    1.5584    0.0000 H   0  0  0  0  0  0  0  0  0  0  0  0
    5.4912    1.3347    0.0000 H   0  0  0  0  0  0  0  0  0  0  0  0
    5.7148    0.4869    0.0000 H   0  0  0  0  0  0  0  0  0  0  0  0
    5.7715    3.6541    0.0000 H   0  0  0  0  0  0  0  0  0  0  0  0
    5.3724    2.9628    0.0000 H   0  0  0  0  0  0  0  0  0  0  0  0
    8.7719   -1.6379    0.0000 H   0  0  0  0  0  0  0  0  0  0  0  0
    9.3871   -1.0131    0.0000 H   0  0  0  0  0  0  0  0  0  0  0  0
    8.7623   -0.3979    0.0000 H   0  0  0  0  0  0  0  0  0  0  0  0
    7.7393   -2.2019    0.0000 H   0  0  0  0  0  0  0  0  0  0  0  0
    8.5879   -2.4223    0.0000 H   0  0  0  0  0  0  0  0  0  0  0  0
    8.8083   -1.5736    0.0000 H   0  0  0  0  0  0  0  0  0  0  0  0
    8.3245    3.3591    0.0000 H   0  0  0  0  0  0  0  0  0  0  0  0
    6.0877    4.9978    0.0000 H   0  0  0  0  0  0  0  0  0  0  0  0
    7.9281    4.1366    0.0000 H   0  0  0  0  0  0  0  0  0  0  0  0
    7.7077    4.9853    0.0000 H   0  0  0  0  0  0  0  0  0  0  0  0
    6.8590    4.7649    0.0000 H   0  0  0  0  0  0  0  0  0  0  0  0
    6.0010   -2.4299    0.0000 H   0  0  0  0  0  0  0  0  0  0  0  0
    4.8094    4.2586    0.0000 H   0  0  0  0  0  0  0  0  0  0  0  0
    5.4965    3.8548    0.0000 H   0  0  0  0  0  0  0  0  0  0  0  0
    6.0010   -4.6699    0.0000 H   0  0  0  0  0  0  0  0  0  0  0  0
    6.5944    5.8599    0.0000 H   0  0  0  0  0  0  0  0  0  0  0  0
    4.5981   -4.8599    0.0000 H   0  0  0  0  0  0  0  0  0  0  0  0
    4.2690   -2.4299    0.0000 H   0  0  0  0  0  0  0  0  0  0  0  0
    4.2690   -4.6699    0.0000 H   0  0  0  0  0  0  0  0  0  0  0  0
    4.2803    5.3408    0.0000 H   0  0  0  0  0  0  0  0  0  0  0  0
    6.8671   -5.1699    0.0000 H   0  0  0  0  0  0  0  0  0  0  0  0
    3.8015   -2.0750    0.0000 H   0  0  0  0  0  0  0  0  0  0  0  0
    3.0044   -2.0750    0.0000 H   0  0  0  0  0  0  0  0  0  0  0  0
    4.5981   -5.8599    0.0000 H   0  0  0  0  0  0  0  0  0  0  0  0
    3.4030   -5.1699    0.0000 H   0  0  0  0  0  0  0  0  0  0  0  0
    2.0000   -2.7399    0.0000 H   0  0  0  0  0  0  0  0  0  0  0  0
  1 15  1  0  0  0  0
  1 28  1  0  0  0  0
  2 26  1  0  0  0  0
  2 68  1  0  0  0  0
  3 28  1  0  0  0  0
  3 32  1  0  0  0  0
  4 29  1  0  0  0  0
  4 72  1  0  0  0  0
  5 30  1  0  0  0  0
  5 73  1  0  0  0  0
  6 31  1  0  0  0  0
  6 76  1  0  0  0  0
  7 33  1  0  0  0  0
  7 77  1  0  0  0  0
  8 34  1  0  0  0  0
  8 78  1  0  0  0  0
  9 10  1  0  0  0  0
  9 12  1  0  0  0  0
  9 13  1  0  0  0  0
  9 20  1  6  0  0  0
 10 11  1  0  0  0  0
 10 14  1  0  0  0  0
 10 35  1  0  0  0  0
 11 15  1  0  0  0  0
 11 23  1  0  0  0  0
 11 24  1  0  0  0  0
 12 16  1  0  0  0  0
 12 18  1  0  0  0  0
 12 36  1  0  0  0  0
 13 17  1  0  0  0  0
 13 37  1  0  0  0  0
 13 38  1  0  0  0  0
 14 19  1  0  0  0  0
 14 39  1  0  0  0  0
 14 40  1  0  0  0  0
 15 17  1  0  0  0  0
 15 41  1  0  0  0  0
 16 19  1  0  0  0  0
 16 25  2  0  0  0  0
 17 42  1  0  0  0  0
 17 43  1  0  0  0  0
 18 22  1  0  0  0  0
 18 44  1  0  0  0  0
 18 45  1  0  0  0  0
 19 46  1  0  0  0  0
 19 47  1  0  0  0  0
 20 48  1  0  0  0  0
 20 49  1  0  0  0  0
 20 50  1  0  0  0  0
 21 22  1  0  0  0  0
 21 25  1  0  0  0  0
 21 26  1  0  0  0  0
 21 27  1  1  0  0  0
 22 51  1  0  0  0  0
 22 52  1  0  0  0  0
 23 53  1  0  0  0  0
 23 54  1  0  0  0  0
 23 55  1  0  0  0  0
 24 56  1  0  0  0  0
 24 57  1  0  0  0  0
 24 58  1  0  0  0  0
 25 59  1  0  0  0  0
 26 29  1  0  0  0  0
 26 60  1  0  0  0  0
 27 61  1  0  0  0  0
 27 62  1  0  0  0  0
 27 63  1  0  0  0  0
 28 30  1  0  0  0  0
 28 64  1  0  0  0  0
 29 65  1  0  0  0  0
 29 66  1  0  0  0  0
 30 31  1  0  0  0  0
 30 67  1  0  0  0  0
 31 33  1  0  0  0  0
 31 69  1  0  0  0  0
 32 33  1  0  0  0  0
 32 34  1  0  0  0  0
 32 70  1  0  0  0  0
 33 71  1  0  0  0  0
 34 74  1  0  0  0  0
 34 75  1  0  0  0  0
M  END
> <PUBCHEM_COMPOUND_CID>
146159280

> <PUBCHEM_COMPOUND_CANONICALIZED>
1

> <PUBCHEM_CACTVS_COMPLEXITY>
770

> <PUBCHEM_CACTVS_HBOND_ACCEPTOR>
8

> <PUBCHEM_CACTVS_HBOND_DONOR>
6

> <PUBCHEM_CACTVS_ROTATABLE_BOND>
5

> <PUBCHEM_CACTVS_SUBSKEYS>
AAADcfB4PAAAAAAAAAAAAAAAAAAAAAAAAAA0YIEAAAAAAADAAAAAGgAACAAADxSwgAMCCAAABgCAAiBCAAAAAAAgAAAACAAAAAgREAIAAQAiQAAFwAAPAAPA4PwPgAAAAAAAAABAAAYAADAAAAAAAAAAAA==

> <PUBCHEM_IUPAC_OPENEYE_NAME>
2-[[(4aS,7S)-7-(1,2-dihydroxyethyl)-1,1,4a,7-tetramethyl-3,4,4b,5,6,9,10,10a-octahydro-2H-phenanthren-2-yl]oxy]-6-(hydroxymethyl)tetrahydropyran-3,4,5-triol

> <PUBCHEM_IUPAC_CAS_NAME>
2-[[(4aS,7S)-7-(1,2-dihydroxyethyl)-1,1,4a,7-tetramethyl-3,4,4b,5,6,9,10,10a-octahydro-2H-phenanthren-2-yl]oxy]-6-(hydroxymethyl)oxane-3,4,5-triol

> <PUBCHEM_IUPAC_NAME_MARKUP>
2-[[(4<I>a</I><I>S</I>,7<I>S</I>)-7-(1,2-dihydroxyethyl)-1,1,4<I>a</I>,7-tetramethyl-3,4,4<I>b</I>,5,6,9,10,10<I>a</I>-octahydro-2<I>H</I>-phenanthren-2-yl]oxy]-6-(hydroxymethyl)oxane-3,4,5-triol

> <PUBCHEM_IUPAC_NAME>
2-[[(4aS,7S)-7-(1,2-dihydroxyethyl)-1,1,4a,7-tetramethyl-3,4,4b,5,6,9,10,10a-octahydro-2H-phenanthren-2-yl]oxy]-6-(hydroxymethyl)oxane-3,4,5-triol

> <PUBCHEM_IUPAC_SYSTEMATIC_NAME>
2-[[(4aS,7S)-7-[1,2-bis(oxidanyl)ethyl]-1,1,4a,7-tetramethyl-3,4,4b,5,6,9,10,10a-octahydro-2H-phenanthren-2-yl]oxy]-6-(hydroxymethyl)oxane-3,4,5-triol

> <PUBCHEM_IUPAC_TRADITIONAL_NAME>
2-[[(4aS,7S)-7-(1,2-dihydroxyethyl)-1,1,4a,7-tetramethyl-3,4,4b,5,6,9,10,10a-octahydro-2H-phenanthren-2-yl]oxy]-6-methylol-tetrahydropyran-3,4,5-triol

> <PUBCHEM_IUPAC_INCHI>
InChI=1S/C26H44O8/c1-24(2)17-6-5-14-11-25(3,18(29)13-28)9-7-15(14)26(17,4)10-8-19(24)34-23-22(32)21(31)20(30)16(12-27)33-23/h11,15-23,27-32H,5-10,12-13H2,1-4H3/t15?,16?,17?,18?,19?,20?,21?,22?,23?,25-,26-/m0/s1

> <PUBCHEM_IUPAC_INCHIKEY>
QWWPCQGHWWNGET-MUONOVFXSA-N

> <PUBCHEM_XLOGP3_AA>
1.6

> <PUBCHEM_EXACT_MASS>
484.30361836

> <PUBCHEM_MOLECULAR_FORMULA>
C26H44O8

> <PUBCHEM_MOLECULAR_WEIGHT>
484.6

> <PUBCHEM_OPENEYE_CAN_SMILES>
CC1(C2CCC3=CC(CCC3C2(CCC1OC4C(C(C(C(O4)CO)O)O)O)C)(C)C(CO)O)C

> <PUBCHEM_OPENEYE_ISO_SMILES>
C[C@@]1(CCC2C(=C1)CCC3[C@]2(CCC(C3(C)C)OC4C(C(C(C(O4)CO)O)O)O)C)C(CO)O

> <PUBCHEM_CACTVS_TPSA>
140

> <PUBCHEM_MONOISOTOPIC_WEIGHT>
484.30361836

> <PUBCHEM_TOTAL_CHARGE>
0

> <PUBCHEM_HEAVY_ATOM_COUNT>
34

> <PUBCHEM_ATOM_DEF_STEREO_COUNT>
2

> <PUBCHEM_ATOM_UDEF_STEREO_COUNT>
9

> <PUBCHEM_BOND_DEF_STEREO_COUNT>
0

> <PUBCHEM_BOND_UDEF_STEREO_COUNT>
0

> <PUBCHEM_ISOTOPIC_ATOM_COUNT>
0

> <PUBCHEM_COMPONENT_COUNT>
1

> <PUBCHEM_CACTVS_TAUTO_COUNT>
-1

> <PUBCHEM_COORDINATE_TYPE>
1
5
255

> <PUBCHEM_BONDANNOTATIONS>
15  1  3
28  1  3
10  14  3
12  18  3
26  2  3
21  27  5
32  34  3
30  5  3
31  6  3
33  7  3
9  20  6

$$$$
