449069
  -OEChem-10012202172D

 36 38  0     1  0  0  0  0  0999 V2000
    2.0000   -2.8775    0.0000 O   0  0  0  0  0  0  0  0  0  0  0  0
    6.0616   -1.6517    0.0000 N   0  0  0  0  0  0  0  0  0  0  0  0
    2.9812   -1.4041    0.0000 N   0  0  0  0  0  0  0  0  0  0  0  0
    5.9744   -0.6555    0.0000 C   0  0  1  0  0  0  0  0  0  0  0  0
    6.2332    0.3104    0.0000 C   0  0  2  0  0  0  0  0  0  0  0  0
    5.4966    1.2930    0.0000 C   0  0  0  0  0  0  0  0  0  0  0  0
    7.2460   -1.4502    0.0000 C   0  0  0  0  0  0  0  0  0  0  0  0
    4.7533   -1.5212    0.0000 C   0  0  0  0  0  0  0  0  0  0  0  0
    4.1999   -0.0007    0.0000 C   0  0  0  0  0  0  0  0  0  0  0  0
    3.9243   -0.9620    0.0000 C   0  0  0  0  0  0  0  0  0  0  0  0
    8.0232   -0.8208    0.0000 C   0  0  0  0  0  0  0  0  0  0  0  0
    7.6648    0.1128    0.0000 C   0  0  0  0  0  0  0  0  0  0  0  0
    4.9966    2.1591    0.0000 C   0  0  0  0  0  0  0  0  0  0  0  0
    4.6967   -2.5613    0.0000 C   0  0  0  0  0  0  0  0  0  0  0  0
    8.9891   -1.0796    0.0000 C   0  0  0  0  0  0  0  0  0  0  0  0
    3.7640   -3.0251    0.0000 C   0  0  0  0  0  0  0  0  0  0  0  0
    2.9005   -2.4426    0.0000 C   0  0  0  0  0  0  0  0  0  0  0  0
    5.4966    3.0251    0.0000 C   0  0  0  0  0  0  0  0  0  0  0  0
    6.4532    1.1315    0.0000 H   0  0  0  0  0  0  0  0  0  0  0  0
    6.8615   -1.9365    0.0000 H   0  0  0  0  0  0  0  0  0  0  0  0
    7.6870   -1.8860    0.0000 H   0  0  0  0  0  0  0  0  0  0  0  0
    4.1949    0.6193    0.0000 H   0  0  0  0  0  0  0  0  0  0  0  0
    3.5856    0.0831    0.0000 H   0  0  0  0  0  0  0  0  0  0  0  0
    8.0502    0.5984    0.0000 H   0  0  0  0  0  0  0  0  0  0  0  0
    6.6234   -1.9137    0.0000 H   0  0  0  0  0  0  0  0  0  0  0  0
    5.5536   -2.0073    0.0000 H   0  0  0  0  0  0  0  0  0  0  0  0
    4.3766    2.1591    0.0000 H   0  0  0  0  0  0  0  0  0  0  0  0
    5.2147   -2.9020    0.0000 H   0  0  0  0  0  0  0  0  0  0  0  0
    2.4712   -1.0515    0.0000 H   0  0  0  0  0  0  0  0  0  0  0  0
    8.8286   -1.6785    0.0000 H   0  0  0  0  0  0  0  0  0  0  0  0
    9.5880   -1.2401    0.0000 H   0  0  0  0  0  0  0  0  0  0  0  0
    9.1496   -0.4808    0.0000 H   0  0  0  0  0  0  0  0  0  0  0  0
    3.7232   -3.6437    0.0000 H   0  0  0  0  0  0  0  0  0  0  0  0
    6.0335    2.7151    0.0000 H   0  0  0  0  0  0  0  0  0  0  0  0
    5.8066    3.5620    0.0000 H   0  0  0  0  0  0  0  0  0  0  0  0
    4.9596    3.3351    0.0000 H   0  0  0  0  0  0  0  0  0  0  0  0
  1 17  2  0  0  0  0
  4  2  1  1  0  0  0
  2 25  1  0  0  0  0
  2 26  1  0  0  0  0
  3 10  1  0  0  0  0
  3 17  1  0  0  0  0
  3 29  1  0  0  0  0
  4  6  1  0  0  0  0
  4  7  1  0  0  0  0
  4  8  1  0  0  0  0
  5  6  1  0  0  0  0
  5  9  1  0  0  0  0
  5 12  1  0  0  0  0
  5 19  1  6  0  0  0
  6 13  2  3  0  0  0
  7 11  1  0  0  0  0
  7 20  1  0  0  0  0
  7 21  1  0  0  0  0
  8 10  2  0  0  0  0
  8 14  1  0  0  0  0
  9 10  1  0  0  0  0
  9 22  1  0  0  0  0
  9 23  1  0  0  0  0
 11 12  2  0  0  0  0
 11 15  1  0  0  0  0
 12 24  1  0  0  0  0
 13 18  1  0  0  0  0
 13 27  1  0  0  0  0
 14 16  2  0  0  0  0
 14 28  1  0  0  0  0
 15 30  1  0  0  0  0
 15 31  1  0  0  0  0
 15 32  1  0  0  0  0
 16 17  1  0  0  0  0
 16 33  1  0  0  0  0
 18 34  1  0  0  0  0
 18 35  1  0  0  0  0
 18 36  1  0  0  0  0
M  END
> <PUBCHEM_COMPOUND_CID>
449069

> <PUBCHEM_COMPOUND_CANONICALIZED>
1

> <PUBCHEM_CACTVS_COMPLEXITY>
551

> <PUBCHEM_CACTVS_HBOND_ACCEPTOR>
2

> <PUBCHEM_CACTVS_HBOND_DONOR>
2

> <PUBCHEM_CACTVS_ROTATABLE_BOND>
0

> <PUBCHEM_CACTVS_SUBSKEYS>
AAADceBzIAAAAAAAAAAAAAAAAAAAAAAAAAAgQIAAAAAQAACAAAAAHgAQAAAADYiBgAACAALAAACIAiVSUACAAAAgAAAICAAAAEgIAAIAgQAEAAAAlACIgYMQgMAOAAAAAAAAAAAAAAAAAAAAAAAAAAAAAA==

> <PUBCHEM_IUPAC_OPENEYE_NAME>
(1R,9R)-1-amino-13-ethylidene-11-methyl-6-azatricyclo[7.3.1.02,7]trideca-2(7),3,10-trien-5-one

> <PUBCHEM_IUPAC_CAS_NAME>
(1R,9R)-1-amino-13-ethylidene-11-methyl-6-azatricyclo[7.3.1.02,7]trideca-2(7),3,10-trien-5-one

> <PUBCHEM_IUPAC_NAME_MARKUP>
(1<I>R</I>,9<I>R</I>)-1-amino-13-ethylidene-11-methyl-6-azatricyclo[7.3.1.0<SUP>2,7</SUP>]trideca-2(7),3,10-trien-5-one

> <PUBCHEM_IUPAC_NAME>
(1R,9R)-1-amino-13-ethylidene-11-methyl-6-azatricyclo[7.3.1.02,7]trideca-2(7),3,10-trien-5-one

> <PUBCHEM_IUPAC_SYSTEMATIC_NAME>
(1R,9R)-1-azanyl-13-ethylidene-11-methyl-6-azatricyclo[7.3.1.02,7]trideca-2(7),3,10-trien-5-one

> <PUBCHEM_IUPAC_TRADITIONAL_NAME>
(1R,9R)-1-amino-13-ethylidene-11-methyl-6-azatricyclo[7.3.1.02,7]trideca-2(7),3,10-trien-5-one

> <PUBCHEM_IUPAC_INCHI>
InChI=1S/C15H18N2O/c1-3-11-10-6-9(2)8-15(11,16)12-4-5-14(18)17-13(12)7-10/h3-6,10H,7-8,16H2,1-2H3,(H,17,18)/t10-,15+/m0/s1

> <PUBCHEM_IUPAC_INCHIKEY>
ZRJBHWIHUMBLCN-ZUZCIYMTSA-N

> <PUBCHEM_XLOGP3_AA>
0

> <PUBCHEM_EXACT_MASS>
242.141913202

> <PUBCHEM_MOLECULAR_FORMULA>
C15H18N2O

> <PUBCHEM_MOLECULAR_WEIGHT>
242.32

> <PUBCHEM_OPENEYE_CAN_SMILES>
CC=C1C2CC3=C(C1(CC(=C2)C)N)C=CC(=O)N3

> <PUBCHEM_OPENEYE_ISO_SMILES>
CC=C1[C@@H]2CC3=C([C@]1(CC(=C2)C)N)C=CC(=O)N3

> <PUBCHEM_CACTVS_TPSA>
55.1

> <PUBCHEM_MONOISOTOPIC_WEIGHT>
242.141913202

> <PUBCHEM_TOTAL_CHARGE>
0

> <PUBCHEM_HEAVY_ATOM_COUNT>
18

> <PUBCHEM_ATOM_DEF_STEREO_COUNT>
2

> <PUBCHEM_ATOM_UDEF_STEREO_COUNT>
0

> <PUBCHEM_BOND_DEF_STEREO_COUNT>
0

> <PUBCHEM_BOND_UDEF_STEREO_COUNT>
1

> <PUBCHEM_ISOTOPIC_ATOM_COUNT>
0

> <PUBCHEM_COMPONENT_COUNT>
1

> <PUBCHEM_CACTVS_TAUTO_COUNT>
5

> <PUBCHEM_COORDINATE_TYPE>
1
5
255

> <PUBCHEM_BONDANNOTATIONS>
14  16  8
16  17  8
4  2  5
3  10  8
3  17  8
5  19  6
6  13  1
8  10  8
8  14  8

$$$$
5912039
  -OEChem-10012202172D

 36 38  0     1  0  0  0  0  0999 V2000
    2.0000   -2.8775    0.0000 O   0  0  0  0  0  0  0  0  0  0  0  0
    6.0616   -1.6517    0.0000 N   0  0  0  0  0  0  0  0  0  0  0  0
    2.9812   -1.4041    0.0000 N   0  0  0  0  0  0  0  0  0  0  0  0
    5.9744   -0.6555    0.0000 C   0  0  3  0  0  0  0  0  0  0  0  0
    6.2332    0.3104    0.0000 C   0  0  3  0  0  0  0  0  0  0  0  0
    5.4966    1.2930    0.0000 C   0  0  0  0  0  0  0  0  0  0  0  0
    7.2460   -1.4502    0.0000 C   0  0  0  0  0  0  0  0  0  0  0  0
    4.7533   -1.5212    0.0000 C   0  0  0  0  0  0  0  0  0  0  0  0
    4.1999   -0.0007    0.0000 C   0  0  0  0  0  0  0  0  0  0  0  0
    3.9243   -0.9620    0.0000 C   0  0  0  0  0  0  0  0  0  0  0  0
    8.0232   -0.8208    0.0000 C   0  0  0  0  0  0  0  0  0  0  0  0
    7.6648    0.1128    0.0000 C   0  0  0  0  0  0  0  0  0  0  0  0
    4.9966    2.1591    0.0000 C   0  0  0  0  0  0  0  0  0  0  0  0
    4.6967   -2.5613    0.0000 C   0  0  0  0  0  0  0  0  0  0  0  0
    8.9891   -1.0796    0.0000 C   0  0  0  0  0  0  0  0  0  0  0  0
    3.7640   -3.0251    0.0000 C   0  0  0  0  0  0  0  0  0  0  0  0
    2.9005   -2.4426    0.0000 C   0  0  0  0  0  0  0  0  0  0  0  0
    5.4966    3.0251    0.0000 C   0  0  0  0  0  0  0  0  0  0  0  0
    6.2377   -0.3096    0.0000 H   0  0  0  0  0  0  0  0  0  0  0  0
    6.8615   -1.9365    0.0000 H   0  0  0  0  0  0  0  0  0  0  0  0
    7.6870   -1.8860    0.0000 H   0  0  0  0  0  0  0  0  0  0  0  0
    4.1949    0.6193    0.0000 H   0  0  0  0  0  0  0  0  0  0  0  0
    3.5856    0.0831    0.0000 H   0  0  0  0  0  0  0  0  0  0  0  0
    8.0502    0.5984    0.0000 H   0  0  0  0  0  0  0  0  0  0  0  0
    6.6234   -1.9137    0.0000 H   0  0  0  0  0  0  0  0  0  0  0  0
    5.5536   -2.0073    0.0000 H   0  0  0  0  0  0  0  0  0  0  0  0
    4.3766    2.1591    0.0000 H   0  0  0  0  0  0  0  0  0  0  0  0
    5.2147   -2.9020    0.0000 H   0  0  0  0  0  0  0  0  0  0  0  0
    2.4712   -1.0515    0.0000 H   0  0  0  0  0  0  0  0  0  0  0  0
    8.8286   -1.6785    0.0000 H   0  0  0  0  0  0  0  0  0  0  0  0
    9.5880   -1.2401    0.0000 H   0  0  0  0  0  0  0  0  0  0  0  0
    9.1496   -0.4808    0.0000 H   0  0  0  0  0  0  0  0  0  0  0  0
    3.7232   -3.6437    0.0000 H   0  0  0  0  0  0  0  0  0  0  0  0
    6.0335    2.7151    0.0000 H   0  0  0  0  0  0  0  0  0  0  0  0
    5.8066    3.5620    0.0000 H   0  0  0  0  0  0  0  0  0  0  0  0
    4.9596    3.3351    0.0000 H   0  0  0  0  0  0  0  0  0  0  0  0
  1 17  2  0  0  0  0
  2  4  1  0  0  0  0
  2 25  1  0  0  0  0
  2 26  1  0  0  0  0
  3 10  1  0  0  0  0
  3 17  1  0  0  0  0
  3 29  1  0  0  0  0
  4  6  1  0  0  0  0
  4  7  1  0  0  0  0
  4  8  1  0  0  0  0
  5  6  1  0  0  0  0
  5  9  1  0  0  0  0
  5 12  1  0  0  0  0
  5 19  1  0  0  0  0
  6 13  2  0  0  0  0
  7 11  1  0  0  0  0
  7 20  1  0  0  0  0
  7 21  1  0  0  0  0
  8 10  2  0  0  0  0
  8 14  1  0  0  0  0
  9 10  1  0  0  0  0
  9 22  1  0  0  0  0
  9 23  1  0  0  0  0
 11 12  2  0  0  0  0
 11 15  1  0  0  0  0
 12 24  1  0  0  0  0
 13 18  1  0  0  0  0
 13 27  1  0  0  0  0
 14 16  2  0  0  0  0
 14 28  1  0  0  0  0
 15 30  1  0  0  0  0
 15 31  1  0  0  0  0
 15 32  1  0  0  0  0
 16 17  1  0  0  0  0
 16 33  1  0  0  0  0
 18 34  1  0  0  0  0
 18 35  1  0  0  0  0
 18 36  1  0  0  0  0
M  END
> <PUBCHEM_COMPOUND_CID>
5912039

> <PUBCHEM_COMPOUND_CANONICALIZED>
1

> <PUBCHEM_CACTVS_COMPLEXITY>
551

> <PUBCHEM_CACTVS_HBOND_ACCEPTOR>
2

> <PUBCHEM_CACTVS_HBOND_DONOR>
2

> <PUBCHEM_CACTVS_ROTATABLE_BOND>
0

> <PUBCHEM_CACTVS_SUBSKEYS>
AAADceBzIAAAAAAAAAAAAAAAAAAAAAAAAAAgQIAAAAAQAACAAAAAHgAQAAAADYiBgAACAALAAACIAiVSUACAAAAgAAAICAAAAEgIAAIAgQAEAAAAlACIgYMQgMAOAAAAAAAAAAAAAAAAAAAAAAAAAAAAAA==

> <PUBCHEM_IUPAC_OPENEYE_NAME>
(13E)-1-amino-13-ethylidene-11-methyl-6-azatricyclo[7.3.1.02,7]trideca-2(7),3,10-trien-5-one

> <PUBCHEM_IUPAC_CAS_NAME>
(13E)-1-amino-13-ethylidene-11-methyl-6-azatricyclo[7.3.1.02,7]trideca-2(7),3,10-trien-5-one

> <PUBCHEM_IUPAC_NAME_MARKUP>
(13<I>E</I>)-1-amino-13-ethylidene-11-methyl-6-azatricyclo[7.3.1.0<SUP>2,7</SUP>]trideca-2(7),3,10-trien-5-one

> <PUBCHEM_IUPAC_NAME>
(13E)-1-amino-13-ethylidene-11-methyl-6-azatricyclo[7.3.1.02,7]trideca-2(7),3,10-trien-5-one

> <PUBCHEM_IUPAC_SYSTEMATIC_NAME>
(13E)-1-azanyl-13-ethylidene-11-methyl-6-azatricyclo[7.3.1.02,7]trideca-2(7),3,10-trien-5-one

> <PUBCHEM_IUPAC_TRADITIONAL_NAME>
(13E)-1-amino-13-ethylidene-11-methyl-6-azatricyclo[7.3.1.02,7]trideca-2(7),3,10-trien-5-one

> <PUBCHEM_IUPAC_INCHI>
InChI=1S/C15H18N2O/c1-3-11-10-6-9(2)8-15(11,16)12-4-5-14(18)17-13(12)7-10/h3-6,10H,7-8,16H2,1-2H3,(H,17,18)/b11-3+

> <PUBCHEM_IUPAC_INCHIKEY>
ZRJBHWIHUMBLCN-QDEBKDIKSA-N

> <PUBCHEM_XLOGP3_AA>
0

> <PUBCHEM_EXACT_MASS>
242.141913202

> <PUBCHEM_MOLECULAR_FORMULA>
C15H18N2O

> <PUBCHEM_MOLECULAR_WEIGHT>
242.32

> <PUBCHEM_OPENEYE_CAN_SMILES>
CC=C1C2CC3=C(C1(CC(=C2)C)N)C=CC(=O)N3

> <PUBCHEM_OPENEYE_ISO_SMILES>
C/C=C/1\C2CC3=C(C1(CC(=C2)C)N)C=CC(=O)N3

> <PUBCHEM_CACTVS_TPSA>
55.1

> <PUBCHEM_MONOISOTOPIC_WEIGHT>
242.141913202

> <PUBCHEM_TOTAL_CHARGE>
0

> <PUBCHEM_HEAVY_ATOM_COUNT>
18

> <PUBCHEM_ATOM_DEF_STEREO_COUNT>
0

> <PUBCHEM_ATOM_UDEF_STEREO_COUNT>
2

> <PUBCHEM_BOND_DEF_STEREO_COUNT>
1

> <PUBCHEM_BOND_UDEF_STEREO_COUNT>
0

> <PUBCHEM_ISOTOPIC_ATOM_COUNT>
0

> <PUBCHEM_COMPONENT_COUNT>
1

> <PUBCHEM_CACTVS_TAUTO_COUNT>
-1

> <PUBCHEM_COORDINATE_TYPE>
1
5
255

> <PUBCHEM_BONDANNOTATIONS>
14  16  8
16  17  8
4  2  3
3  10  8
3  17  8
5  9  3
8  10  8
8  14  8

$$$$
1253
  -OEChem-10012202172D

 36 38  0     1  0  0  0  0  0999 V2000
    2.0000   -2.8775    0.0000 O   0  0  0  0  0  0  0  0  0  0  0  0
    6.0616   -1.6517    0.0000 N   0  0  0  0  0  0  0  0  0  0  0  0
    2.9812   -1.4041    0.0000 N   0  0  0  0  0  0  0  0  0  0  0  0
    5.9744   -0.6555    0.0000 C   0  0  3  0  0  0  0  0  0  0  0  0
    6.2332    0.3104    0.0000 C   0  0  3  0  0  0  0  0  0  0  0  0
    5.4966    1.2930    0.0000 C   0  0  0  0  0  0  0  0  0  0  0  0
    7.2460   -1.4502    0.0000 C   0  0  0  0  0  0  0  0  0  0  0  0
    4.7533   -1.5212    0.0000 C   0  0  0  0  0  0  0  0  0  0  0  0
    4.1999   -0.0007    0.0000 C   0  0  0  0  0  0  0  0  0  0  0  0
    3.9243   -0.9620    0.0000 C   0  0  0  0  0  0  0  0  0  0  0  0
    8.0232   -0.8208    0.0000 C   0  0  0  0  0  0  0  0  0  0  0  0
    7.6648    0.1128    0.0000 C   0  0  0  0  0  0  0  0  0  0  0  0
    4.9966    2.1591    0.0000 C   0  0  0  0  0  0  0  0  0  0  0  0
    4.6967   -2.5613    0.0000 C   0  0  0  0  0  0  0  0  0  0  0  0
    8.9891   -1.0796    0.0000 C   0  0  0  0  0  0  0  0  0  0  0  0
    3.7640   -3.0251    0.0000 C   0  0  0  0  0  0  0  0  0  0  0  0
    2.9005   -2.4426    0.0000 C   0  0  0  0  0  0  0  0  0  0  0  0
    5.4966    3.0251    0.0000 C   0  0  0  0  0  0  0  0  0  0  0  0
    6.2377   -0.3096    0.0000 H   0  0  0  0  0  0  0  0  0  0  0  0
    6.8615   -1.9365    0.0000 H   0  0  0  0  0  0  0  0  0  0  0  0
    7.6870   -1.8860    0.0000 H   0  0  0  0  0  0  0  0  0  0  0  0
    4.1949    0.6193    0.0000 H   0  0  0  0  0  0  0  0  0  0  0  0
    3.5856    0.0831    0.0000 H   0  0  0  0  0  0  0  0  0  0  0  0
    8.0502    0.5984    0.0000 H   0  0  0  0  0  0  0  0  0  0  0  0
    6.6234   -1.9137    0.0000 H   0  0  0  0  0  0  0  0  0  0  0  0
    5.5536   -2.0073    0.0000 H   0  0  0  0  0  0  0  0  0  0  0  0
    4.3766    2.1591    0.0000 H   0  0  0  0  0  0  0  0  0  0  0  0
    5.2147   -2.9020    0.0000 H   0  0  0  0  0  0  0  0  0  0  0  0
    2.4712   -1.0515    0.0000 H   0  0  0  0  0  0  0  0  0  0  0  0
    8.8286   -1.6785    0.0000 H   0  0  0  0  0  0  0  0  0  0  0  0
    9.5880   -1.2401    0.0000 H   0  0  0  0  0  0  0  0  0  0  0  0
    9.1496   -0.4808    0.0000 H   0  0  0  0  0  0  0  0  0  0  0  0
    3.7232   -3.6437    0.0000 H   0  0  0  0  0  0  0  0  0  0  0  0
    6.0335    2.7151    0.0000 H   0  0  0  0  0  0  0  0  0  0  0  0
    5.8066    3.5620    0.0000 H   0  0  0  0  0  0  0  0  0  0  0  0
    4.9596    3.3351    0.0000 H   0  0  0  0  0  0  0  0  0  0  0  0
  1 17  2  0  0  0  0
  2  4  1  0  0  0  0
  2 25  1  0  0  0  0
  2 26  1  0  0  0  0
  3 10  1  0  0  0  0
  3 17  1  0  0  0  0
  3 29  1  0  0  0  0
  4  6  1  0  0  0  0
  4  7  1  0  0  0  0
  4  8  1  0  0  0  0
  5  6  1  0  0  0  0
  5  9  1  0  0  0  0
  5 12  1  0  0  0  0
  5 19  1  0  0  0  0
  6 13  2  3  0  0  0
  7 11  1  0  0  0  0
  7 20  1  0  0  0  0
  7 21  1  0  0  0  0
  8 10  2  0  0  0  0
  8 14  1  0  0  0  0
  9 10  1  0  0  0  0
  9 22  1  0  0  0  0
  9 23  1  0  0  0  0
 11 12  2  0  0  0  0
 11 15  1  0  0  0  0
 12 24  1  0  0  0  0
 13 18  1  0  0  0  0
 13 27  1  0  0  0  0
 14 16  2  0  0  0  0
 14 28  1  0  0  0  0
 15 30  1  0  0  0  0
 15 31  1  0  0  0  0
 15 32  1  0  0  0  0
 16 17  1  0  0  0  0
 16 33  1  0  0  0  0
 18 34  1  0  0  0  0
 18 35  1  0  0  0  0
 18 36  1  0  0  0  0
M  END
> <PUBCHEM_COMPOUND_CID>
1253

> <PUBCHEM_COMPOUND_CANONICALIZED>
1

> <PUBCHEM_CACTVS_COMPLEXITY>
551

> <PUBCHEM_CACTVS_HBOND_ACCEPTOR>
2

> <PUBCHEM_CACTVS_HBOND_DONOR>
2

> <PUBCHEM_CACTVS_ROTATABLE_BOND>
0

> <PUBCHEM_CACTVS_SUBSKEYS>
AAADceBzIAAAAAAAAAAAAAAAAAAAAAAAAAAgQIAAAAAQAACAAAAAHgAQAAAADYiBgAACAALAAACIAiVSUACAAAAgAAAICAAAAEgIAAIAgQAEAAAAlACIgYMQgMAOAAAAAAAAAAAAAAAAAAAAAAAAAAAAAA==

> <PUBCHEM_IUPAC_OPENEYE_NAME>
1-amino-13-ethylidene-11-methyl-6-azatricyclo[7.3.1.02,7]trideca-2(7),3,10-trien-5-one

> <PUBCHEM_IUPAC_CAS_NAME>
1-amino-13-ethylidene-11-methyl-6-azatricyclo[7.3.1.02,7]trideca-2(7),3,10-trien-5-one

> <PUBCHEM_IUPAC_NAME_MARKUP>
1-amino-13-ethylidene-11-methyl-6-azatricyclo[7.3.1.0<SUP>2,7</SUP>]trideca-2(7),3,10-trien-5-one

> <PUBCHEM_IUPAC_NAME>
1-amino-13-ethylidene-11-methyl-6-azatricyclo[7.3.1.02,7]trideca-2(7),3,10-trien-5-one

> <PUBCHEM_IUPAC_SYSTEMATIC_NAME>
1-azanyl-13-ethylidene-11-methyl-6-azatricyclo[7.3.1.02,7]trideca-2(7),3,10-trien-5-one

> <PUBCHEM_IUPAC_TRADITIONAL_NAME>
1-amino-13-ethylidene-11-methyl-6-azatricyclo[7.3.1.02,7]trideca-2(7),3,10-trien-5-one

> <PUBCHEM_IUPAC_INCHI>
InChI=1S/C15H18N2O/c1-3-11-10-6-9(2)8-15(11,16)12-4-5-14(18)17-13(12)7-10/h3-6,10H,7-8,16H2,1-2H3,(H,17,18)

> <PUBCHEM_IUPAC_INCHIKEY>
ZRJBHWIHUMBLCN-UHFFFAOYSA-N

> <PUBCHEM_XLOGP3_AA>
0

> <PUBCHEM_EXACT_MASS>
242.141913202

> <PUBCHEM_MOLECULAR_FORMULA>
C15H18N2O

> <PUBCHEM_MOLECULAR_WEIGHT>
242.32

> <PUBCHEM_OPENEYE_CAN_SMILES>
CC=C1C2CC3=C(C1(CC(=C2)C)N)C=CC(=O)N3

> <PUBCHEM_OPENEYE_ISO_SMILES>
CC=C1C2CC3=C(C1(CC(=C2)C)N)C=CC(=O)N3

> <PUBCHEM_CACTVS_TPSA>
55.1

> <PUBCHEM_MONOISOTOPIC_WEIGHT>
242.141913202

> <PUBCHEM_TOTAL_CHARGE>
0

> <PUBCHEM_HEAVY_ATOM_COUNT>
18

> <PUBCHEM_ATOM_DEF_STEREO_COUNT>
0

> <PUBCHEM_ATOM_UDEF_STEREO_COUNT>
2

> <PUBCHEM_BOND_DEF_STEREO_COUNT>
0

> <PUBCHEM_BOND_UDEF_STEREO_COUNT>
1

> <PUBCHEM_ISOTOPIC_ATOM_COUNT>
0

> <PUBCHEM_COMPONENT_COUNT>
1

> <PUBCHEM_CACTVS_TAUTO_COUNT>
5

> <PUBCHEM_COORDINATE_TYPE>
1
5
255

> <PUBCHEM_BONDANNOTATIONS>
14  16  8
16  17  8
4  2  3
3  10  8
3  17  8
5  9  3
6  13  1
8  10  8
8  14  8

$$$$
