5281417
  -OEChem-10012202132D

 40 42  0     1  0  0  0  0  0999 V2000
    5.1350   -1.1296    0.0000 O   0  0  0  0  0  0  0  0  0  0  0  0
    6.8671   -1.1296    0.0000 O   0  0  0  0  0  0  0  0  0  0  0  0
    5.1350   -4.1296    0.0000 O   0  0  0  0  0  0  0  0  0  0  0  0
    3.4030   -3.1296    0.0000 O   0  0  0  0  0  0  0  0  0  0  0  0
    6.8671   -3.1296    0.0000 O   0  0  0  0  0  0  0  0  0  0  0  0
    2.5369   -1.6296    0.0000 O   0  0  0  0  0  0  0  0  0  0  0  0
    6.8510    2.9119    0.0000 O   0  0  0  0  0  0  0  0  0  0  0  0
    5.1350   -0.1296    0.0000 O   0  0  0  0  0  0  0  0  0  0  0  0
    7.7452    4.4396    0.0000 O   0  0  0  0  0  0  0  0  0  0  0  0
    5.1350   -3.1296    0.0000 C   0  0  1  0  0  0  0  0  0  0  0  0
    4.2690   -2.6296    0.0000 C   0  0  1  0  0  0  0  0  0  0  0  0
    6.0010   -2.6296    0.0000 C   0  0  2  0  0  0  0  0  0  0  0  0
    4.2690   -1.6296    0.0000 C   0  0  1  0  0  0  0  0  0  0  0  0
    6.0010   -1.6296    0.0000 C   0  0  1  0  0  0  0  0  0  0  0  0
    3.4030   -1.1296    0.0000 C   0  0  0  0  0  0  0  0  0  0  0  0
    6.8671   -0.1296    0.0000 C   0  0  0  0  0  0  0  0  0  0  0  0
    7.7331    0.3704    0.0000 C   0  0  0  0  0  0  0  0  0  0  0  0
    6.0010    0.3704    0.0000 C   0  0  0  0  0  0  0  0  0  0  0  0
    7.7331    1.3704    0.0000 C   0  0  0  0  0  0  0  0  0  0  0  0
    6.8671    1.8704    0.0000 C   0  0  0  0  0  0  0  0  0  0  0  0
    6.0010    1.3704    0.0000 C   0  0  0  0  0  0  0  0  0  0  0  0
    8.6431    1.8772    0.0000 C   0  0  0  0  0  0  0  0  0  0  0  0
    8.6511    2.9188    0.0000 C   0  0  0  0  0  0  0  0  0  0  0  0
    7.7490    3.4396    0.0000 C   0  0  0  0  0  0  0  0  0  0  0  0
    4.5981   -3.4396    0.0000 H   0  0  0  0  0  0  0  0  0  0  0  0
    4.2690   -3.2496    0.0000 H   0  0  0  0  0  0  0  0  0  0  0  0
    6.0010   -3.2496    0.0000 H   0  0  0  0  0  0  0  0  0  0  0  0
    4.2690   -1.0096    0.0000 H   0  0  0  0  0  0  0  0  0  0  0  0
    6.0010   -1.0096    0.0000 H   0  0  0  0  0  0  0  0  0  0  0  0
    3.8015   -0.6547    0.0000 H   0  0  0  0  0  0  0  0  0  0  0  0
    3.0044   -0.6547    0.0000 H   0  0  0  0  0  0  0  0  0  0  0  0
    4.5981   -4.4396    0.0000 H   0  0  0  0  0  0  0  0  0  0  0  0
    3.4030   -3.7496    0.0000 H   0  0  0  0  0  0  0  0  0  0  0  0
    6.8671   -3.7496    0.0000 H   0  0  0  0  0  0  0  0  0  0  0  0
    2.0000   -1.3196    0.0000 H   0  0  0  0  0  0  0  0  0  0  0  0
    8.2700    0.0604    0.0000 H   0  0  0  0  0  0  0  0  0  0  0  0
    5.4641    1.6804    0.0000 H   0  0  0  0  0  0  0  0  0  0  0  0
    9.1764    1.5610    0.0000 H   0  0  0  0  0  0  0  0  0  0  0  0
    4.5981    0.1804    0.0000 H   0  0  0  0  0  0  0  0  0  0  0  0
    9.1892    3.2268    0.0000 H   0  0  0  0  0  0  0  0  0  0  0  0
  1 13  1  0  0  0  0
  1 14  1  0  0  0  0
 14  2  1  1  0  0  0
  2 16  1  0  0  0  0
 10  3  1  1  0  0  0
  3 32  1  0  0  0  0
 11  4  1  6  0  0  0
  4 33  1  0  0  0  0
 12  5  1  6  0  0  0
  5 34  1  0  0  0  0
  6 15  1  0  0  0  0
  6 35  1  0  0  0  0
  7 20  1  0  0  0  0
  7 24  1  0  0  0  0
  8 18  1  0  0  0  0
  8 39  1  0  0  0  0
  9 24  2  0  0  0  0
 10 11  1  0  0  0  0
 10 12  1  0  0  0  0
 10 25  1  0  0  0  0
 11 13  1  0  0  0  0
 11 26  1  0  0  0  0
 12 14  1  0  0  0  0
 12 27  1  0  0  0  0
 13 15  1  1  0  0  0
 13 28  1  0  0  0  0
 14 29  1  0  0  0  0
 15 30  1  0  0  0  0
 15 31  1  0  0  0  0
 16 17  1  0  0  0  0
 16 18  2  0  0  0  0
 17 19  2  0  0  0  0
 17 36  1  0  0  0  0
 18 21  1  0  0  0  0
 19 20  1  0  0  0  0
 19 22  1  0  0  0  0
 20 21  2  0  0  0  0
 21 37  1  0  0  0  0
 22 23  2  0  0  0  0
 22 38  1  0  0  0  0
 23 24  1  0  0  0  0
 23 40  1  0  0  0  0
M  END
> <PUBCHEM_COMPOUND_CID>
5281417

> <PUBCHEM_COMPOUND_CANONICALIZED>
1

> <PUBCHEM_CACTVS_COMPLEXITY>
495

> <PUBCHEM_CACTVS_HBOND_ACCEPTOR>
9

> <PUBCHEM_CACTVS_HBOND_DONOR>
5

> <PUBCHEM_CACTVS_ROTATABLE_BOND>
3

> <PUBCHEM_CACTVS_SUBSKEYS>
AAADceBwPAAAAAAAAAAAAAAAAAAAAAAAAAA0QIAAAAAAAACBAAAAGgAACAAADBSwmAMwDoAABgCIAiDSCAACCAAgIAAIiAAGiMgdNyKGMRqieiOlwBUPuYfA4DwOIQABCAAIQABCAAIQABCAAAAAAAAAAA==

> <PUBCHEM_IUPAC_OPENEYE_NAME>
7-hydroxy-6-[(2S,3R,4S,5S,6R)-3,4,5-trihydroxy-6-(hydroxymethyl)tetrahydropyran-2-yl]oxy-chromen-2-one

> <PUBCHEM_IUPAC_CAS_NAME>
7-hydroxy-6-[[(2S,3R,4S,5S,6R)-3,4,5-trihydroxy-6-(hydroxymethyl)-2-oxanyl]oxy]-1-benzopyran-2-one

> <PUBCHEM_IUPAC_NAME_MARKUP>
7-hydroxy-6-[(2<I>S</I>,3<I>R</I>,4<I>S</I>,5<I>S</I>,6<I>R</I>)-3,4,5-trihydroxy-6-(hydroxymethyl)oxan-2-yl]oxychromen-2-one

> <PUBCHEM_IUPAC_NAME>
7-hydroxy-6-[(2S,3R,4S,5S,6R)-3,4,5-trihydroxy-6-(hydroxymethyl)oxan-2-yl]oxychromen-2-one

> <PUBCHEM_IUPAC_SYSTEMATIC_NAME>
6-[(2S,3R,4S,5S,6R)-6-(hydroxymethyl)-3,4,5-tris(oxidanyl)oxan-2-yl]oxy-7-oxidanyl-chromen-2-one

> <PUBCHEM_IUPAC_TRADITIONAL_NAME>
7-hydroxy-6-[(2S,3R,4S,5S,6R)-3,4,5-trihydroxy-6-methylol-tetrahydropyran-2-yl]oxy-coumarin

> <PUBCHEM_IUPAC_INCHI>
InChI=1S/C15H16O9/c16-5-10-12(19)13(20)14(21)15(24-10)23-9-3-6-1-2-11(18)22-8(6)4-7(9)17/h1-4,10,12-17,19-21H,5H2/t10-,12-,13+,14-,15-/m1/s1

> <PUBCHEM_IUPAC_INCHIKEY>
XHCADAYNFIFUHF-TVKJYDDYSA-N

> <PUBCHEM_XLOGP3_AA>
-0.6

> <PUBCHEM_EXACT_MASS>
340.07943208

> <PUBCHEM_MOLECULAR_FORMULA>
C15H16O9

> <PUBCHEM_MOLECULAR_WEIGHT>
340.28

> <PUBCHEM_OPENEYE_CAN_SMILES>
C1=CC(=O)OC2=CC(=C(C=C21)OC3C(C(C(C(O3)CO)O)O)O)O

> <PUBCHEM_OPENEYE_ISO_SMILES>
C1=CC(=O)OC2=CC(=C(C=C21)O[C@H]3[C@@H]([C@H]([C@@H]([C@H](O3)CO)O)O)O)O

> <PUBCHEM_CACTVS_TPSA>
146

> <PUBCHEM_MONOISOTOPIC_WEIGHT>
340.07943208

> <PUBCHEM_TOTAL_CHARGE>
0

> <PUBCHEM_HEAVY_ATOM_COUNT>
24

> <PUBCHEM_ATOM_DEF_STEREO_COUNT>
5

> <PUBCHEM_ATOM_UDEF_STEREO_COUNT>
0

> <PUBCHEM_BOND_DEF_STEREO_COUNT>
0

> <PUBCHEM_BOND_UDEF_STEREO_COUNT>
0

> <PUBCHEM_ISOTOPIC_ATOM_COUNT>
0

> <PUBCHEM_COMPONENT_COUNT>
1

> <PUBCHEM_CACTVS_TAUTO_COUNT>
-1

> <PUBCHEM_COORDINATE_TYPE>
1
5
255

> <PUBCHEM_BONDANNOTATIONS>
13  15  5
16  17  8
16  18  8
17  19  8
18  21  8
19  20  8
19  22  8
14  2  5
20  21  8
22  23  8
23  24  8
10  3  5
11  4  6
12  5  6
7  20  8
7  24  8

$$$$
