5318980
  -OEChem-10012202192D

 47 49  0     0  0  0  0  0  0999 V2000
    6.0682   -0.1481    0.0000 O   0  0  0  0  0  0  0  0  0  0  0  0
    2.5381   -0.1723    0.0000 O   0  0  0  0  0  0  0  0  0  0  0  0
    4.3198    2.8864    0.0000 O   0  0  0  0  0  0  0  0  0  0  0  0
    7.8003    1.8518    0.0000 O   0  0  0  0  0  0  0  0  0  0  0  0
    6.0682    2.8519    0.0000 O   0  0  0  0  0  0  0  0  0  0  0  0
   10.3984   -1.6482    0.0000 O   0  0  0  0  0  0  0  0  0  0  0  0
    4.3083   -0.1828    0.0000 C   0  0  0  0  0  0  0  0  0  0  0  0
    5.2022    0.3519    0.0000 C   0  0  0  0  0  0  0  0  0  0  0  0
    5.2022    1.3518    0.0000 C   0  0  0  0  0  0  0  0  0  0  0  0
    4.3198   -1.1827    0.0000 C   0  0  0  0  0  0  0  0  0  0  0  0
    3.4022    0.3310    0.0000 C   0  0  0  0  0  0  0  0  0  0  0  0
    6.9343    0.3519    0.0000 C   0  0  0  0  0  0  0  0  0  0  0  0
    4.3083    1.8865    0.0000 C   0  0  0  0  0  0  0  0  0  0  0  0
    6.0682    1.8518    0.0000 C   0  0  0  0  0  0  0  0  0  0  0  0
    3.4022    1.3727    0.0000 C   0  0  0  0  0  0  0  0  0  0  0  0
    6.9343    1.3518    0.0000 C   0  0  0  0  0  0  0  0  0  0  0  0
    7.8003   -0.1481    0.0000 C   0  0  0  0  0  0  0  0  0  0  0  0
    3.4597   -1.6927    0.0000 C   0  0  0  0  0  0  0  0  0  0  0  0
    3.4712   -2.6927    0.0000 C   0  0  0  0  0  0  0  0  0  0  0  0
    8.6663    0.3519    0.0000 C   0  0  0  0  0  0  0  0  0  0  0  0
    7.8003   -1.1482    0.0000 C   0  0  0  0  0  0  0  0  0  0  0  0
    9.5323   -0.1481    0.0000 C   0  0  0  0  0  0  0  0  0  0  0  0
    8.6663   -1.6482    0.0000 C   0  0  0  0  0  0  0  0  0  0  0  0
    2.6110   -3.2026    0.0000 C   0  0  0  0  0  0  0  0  0  0  0  0
    4.3430   -3.1826    0.0000 C   0  0  0  0  0  0  0  0  0  0  0  0
    9.5323   -1.1482    0.0000 C   0  0  0  0  0  0  0  0  0  0  0  0
   10.3984   -2.6481    0.0000 C   0  0  0  0  0  0  0  0  0  0  0  0
    4.5386   -1.7629    0.0000 H   0  0  0  0  0  0  0  0  0  0  0  0
    4.9291   -1.0680    0.0000 H   0  0  0  0  0  0  0  0  0  0  0  0
    2.8665    1.6847    0.0000 H   0  0  0  0  0  0  0  0  0  0  0  0
    2.9192   -1.3889    0.0000 H   0  0  0  0  0  0  0  0  0  0  0  0
    8.6663    0.9719    0.0000 H   0  0  0  0  0  0  0  0  0  0  0  0
    7.2634   -1.4582    0.0000 H   0  0  0  0  0  0  0  0  0  0  0  0
    2.0000    0.1356    0.0000 H   0  0  0  0  0  0  0  0  0  0  0  0
   10.0693    0.1619    0.0000 H   0  0  0  0  0  0  0  0  0  0  0  0
    8.6663   -2.2682    0.0000 H   0  0  0  0  0  0  0  0  0  0  0  0
    2.2948   -2.6693    0.0000 H   0  0  0  0  0  0  0  0  0  0  0  0
    2.0777   -3.5188    0.0000 H   0  0  0  0  0  0  0  0  0  0  0  0
    2.9272   -3.7360    0.0000 H   0  0  0  0  0  0  0  0  0  0  0  0
    4.0392   -3.7231    0.0000 H   0  0  0  0  0  0  0  0  0  0  0  0
    4.8835   -3.4864    0.0000 H   0  0  0  0  0  0  0  0  0  0  0  0
    4.6468   -2.6421    0.0000 H   0  0  0  0  0  0  0  0  0  0  0  0
    3.7865    3.2026    0.0000 H   0  0  0  0  0  0  0  0  0  0  0  0
    7.8003    2.4718    0.0000 H   0  0  0  0  0  0  0  0  0  0  0  0
    9.7784   -2.6481    0.0000 H   0  0  0  0  0  0  0  0  0  0  0  0
   10.3984   -3.2682    0.0000 H   0  0  0  0  0  0  0  0  0  0  0  0
   11.0184   -2.6481    0.0000 H   0  0  0  0  0  0  0  0  0  0  0  0
  1  8  1  0  0  0  0
  1 12  1  0  0  0  0
  2 11  1  0  0  0  0
  2 34  1  0  0  0  0
  3 13  1  0  0  0  0
  3 43  1  0  0  0  0
  4 16  1  0  0  0  0
  4 44  1  0  0  0  0
  5 14  2  0  0  0  0
  6 26  1  0  0  0  0
  6 27  1  0  0  0  0
  7  8  2  0  0  0  0
  7 10  1  0  0  0  0
  7 11  1  0  0  0  0
  8  9  1  0  0  0  0
  9 13  2  0  0  0  0
  9 14  1  0  0  0  0
 10 18  1  0  0  0  0
 10 28  1  0  0  0  0
 10 29  1  0  0  0  0
 11 15  2  0  0  0  0
 12 16  2  0  0  0  0
 12 17  1  0  0  0  0
 13 15  1  0  0  0  0
 14 16  1  0  0  0  0
 15 30  1  0  0  0  0
 17 20  2  0  0  0  0
 17 21  1  0  0  0  0
 18 19  2  0  0  0  0
 18 31  1  0  0  0  0
 19 24  1  0  0  0  0
 19 25  1  0  0  0  0
 20 22  1  0  0  0  0
 20 32  1  0  0  0  0
 21 23  2  0  0  0  0
 21 33  1  0  0  0  0
 22 26  2  0  0  0  0
 22 35  1  0  0  0  0
 23 26  1  0  0  0  0
 23 36  1  0  0  0  0
 24 37  1  0  0  0  0
 24 38  1  0  0  0  0
 24 39  1  0  0  0  0
 25 40  1  0  0  0  0
 25 41  1  0  0  0  0
 25 42  1  0  0  0  0
 27 45  1  0  0  0  0
 27 46  1  0  0  0  0
 27 47  1  0  0  0  0
M  END
> <PUBCHEM_COMPOUND_CID>
5318980

> <PUBCHEM_COMPOUND_CANONICALIZED>
1

> <PUBCHEM_CACTVS_COMPLEXITY>
612

> <PUBCHEM_CACTVS_HBOND_ACCEPTOR>
6

> <PUBCHEM_CACTVS_HBOND_DONOR>
3

> <PUBCHEM_CACTVS_ROTATABLE_BOND>
4

> <PUBCHEM_CACTVS_SUBSKEYS>
AAADceB4OAAAAAAAAAAAAAAAAAAAAAAAAAAwYIAAAAAAAACBQAAAGgAACAAADASAmAIyBoAABgCIAqBSAAICCAAkIAAIiAFGCMgMJzaGNRqCeWCl4BUIuQfI7PzOIAACCAAIAABAAAQQABAAAAAAAAAAAA==

> <PUBCHEM_IUPAC_OPENEYE_NAME>
3,5,7-trihydroxy-2-(4-methoxyphenyl)-8-(3-methylbut-2-enyl)chromen-4-one

> <PUBCHEM_IUPAC_CAS_NAME>
3,5,7-trihydroxy-2-(4-methoxyphenyl)-8-(3-methylbut-2-enyl)-1-benzopyran-4-one

> <PUBCHEM_IUPAC_NAME_MARKUP>
3,5,7-trihydroxy-2-(4-methoxyphenyl)-8-(3-methylbut-2-enyl)chromen-4-one

> <PUBCHEM_IUPAC_NAME>
3,5,7-trihydroxy-2-(4-methoxyphenyl)-8-(3-methylbut-2-enyl)chromen-4-one

> <PUBCHEM_IUPAC_SYSTEMATIC_NAME>
2-(4-methoxyphenyl)-8-(3-methylbut-2-enyl)-3,5,7-tris(oxidanyl)chromen-4-one

> <PUBCHEM_IUPAC_TRADITIONAL_NAME>
3,5,7-trihydroxy-2-(4-methoxyphenyl)-8-(3-methylbut-2-enyl)chromone

> <PUBCHEM_IUPAC_INCHI>
InChI=1S/C21H20O6/c1-11(2)4-9-14-15(22)10-16(23)17-18(24)19(25)20(27-21(14)17)12-5-7-13(26-3)8-6-12/h4-8,10,22-23,25H,9H2,1-3H3

> <PUBCHEM_IUPAC_INCHIKEY>
TUUXBSASAQJECY-UHFFFAOYSA-N

> <PUBCHEM_XLOGP3_AA>
4.8

> <PUBCHEM_EXACT_MASS>
368.12598835

> <PUBCHEM_MOLECULAR_FORMULA>
C21H20O6

> <PUBCHEM_MOLECULAR_WEIGHT>
368.4

> <PUBCHEM_OPENEYE_CAN_SMILES>
CC(=CCC1=C2C(=C(C=C1O)O)C(=O)C(=C(O2)C3=CC=C(C=C3)OC)O)C

> <PUBCHEM_OPENEYE_ISO_SMILES>
CC(=CCC1=C2C(=C(C=C1O)O)C(=O)C(=C(O2)C3=CC=C(C=C3)OC)O)C

> <PUBCHEM_CACTVS_TPSA>
96.2

> <PUBCHEM_MONOISOTOPIC_WEIGHT>
368.12598835

> <PUBCHEM_TOTAL_CHARGE>
0

> <PUBCHEM_HEAVY_ATOM_COUNT>
27

> <PUBCHEM_ATOM_DEF_STEREO_COUNT>
0

> <PUBCHEM_ATOM_UDEF_STEREO_COUNT>
0

> <PUBCHEM_BOND_DEF_STEREO_COUNT>
0

> <PUBCHEM_BOND_UDEF_STEREO_COUNT>
0

> <PUBCHEM_ISOTOPIC_ATOM_COUNT>
0

> <PUBCHEM_COMPONENT_COUNT>
1

> <PUBCHEM_CACTVS_TAUTO_COUNT>
-1

> <PUBCHEM_COORDINATE_TYPE>
1
5
255

> <PUBCHEM_BONDANNOTATIONS>
1  12  8
1  8  8
11  15  8
12  16  8
13  15  8
14  16  8
17  20  8
17  21  8
20  22  8
21  23  8
22  26  8
23  26  8
7  11  8
7  8  8
8  9  8
9  13  8
9  14  8

$$$$
