5320692
  -OEChem-10012202112D

 59 61  0     1  0  0  0  0  0999 V2000
    6.3701   -2.8575    0.0000 O   0  0  0  0  0  0  0  0  0  0  0  0
    4.6000   -0.7987    0.0000 O   0  0  0  0  0  0  0  0  0  0  0  0
    6.3817    0.2118    0.0000 O   0  0  0  0  0  0  0  0  0  0  0  0
    8.1140    0.2187    0.0000 O   0  0  0  0  0  0  0  0  0  0  0  0
    4.6498    0.2318    0.0000 O   0  0  0  0  0  0  0  0  0  0  0  0
    3.7282   -2.2953    0.0000 O   0  0  0  0  0  0  0  0  0  0  0  0
    9.0082    1.7464    0.0000 O   0  0  0  0  0  0  0  0  0  0  0  0
    5.4641   -2.3436    0.0000 C   0  0  0  0  0  0  0  0  0  0  0  0
    5.4641   -1.3020    0.0000 C   0  0  1  0  0  0  0  0  0  0  0  0
    6.3701   -0.7882    0.0000 C   0  0  1  0  0  0  0  0  0  0  0  0
    7.2641   -1.3228    0.0000 C   0  0  0  0  0  0  0  0  0  0  0  0
    7.2641   -2.3228    0.0000 C   0  0  0  0  0  0  0  0  0  0  0  0
    4.9674   -3.2116    0.0000 C   0  0  0  0  0  0  0  0  0  0  0  0
    4.4641   -2.3475    0.0000 C   0  0  0  0  0  0  0  0  0  0  0  0
    8.1301   -0.8228    0.0000 C   0  0  0  0  0  0  0  0  0  0  0  0
    8.1301   -2.8228    0.0000 C   0  0  0  0  0  0  0  0  0  0  0  0
    8.9961   -1.3228    0.0000 C   0  0  0  0  0  0  0  0  0  0  0  0
    8.9961   -2.3228    0.0000 C   0  0  0  0  0  0  0  0  0  0  0  0
    5.5215    0.7218    0.0000 C   0  0  0  0  0  0  0  0  0  0  0  0
    5.5331    1.7217    0.0000 C   0  0  0  0  0  0  0  0  0  0  0  0
    3.7320   -1.2953    0.0000 C   0  0  0  0  0  0  0  0  0  0  0  0
    6.4048    2.2116    0.0000 C   0  0  0  0  0  0  0  0  0  0  0  0
    9.9061   -0.8160    0.0000 C   0  0  0  0  0  0  0  0  0  0  0  0
    9.0121    0.7464    0.0000 C   0  0  0  0  0  0  0  0  0  0  0  0
    9.9142    0.2256    0.0000 C   0  0  0  0  0  0  0  0  0  0  0  0
    2.8680   -0.7920    0.0000 C   0  0  0  0  0  0  0  0  0  0  0  0
    6.4164    3.2116    0.0000 C   0  0  0  0  0  0  0  0  0  0  0  0
    7.2650    1.7017    0.0000 C   0  0  0  0  0  0  0  0  0  0  0  0
    2.0000   -1.2886    0.0000 C   0  0  0  0  0  0  0  0  0  0  0  0
    2.8718    0.2080    0.0000 C   0  0  0  0  0  0  0  0  0  0  0  0
    3.7398    0.7047    0.0000 C   0  0  0  0  0  0  0  0  0  0  0  0
    5.4677   -0.6820    0.0000 H   0  0  0  0  0  0  0  0  0  0  0  0
    6.9112   -0.4854    0.0000 H   0  0  0  0  0  0  0  0  0  0  0  0
    4.4293   -2.9036    0.0000 H   0  0  0  0  0  0  0  0  0  0  0  0
    4.6595   -3.7497    0.0000 H   0  0  0  0  0  0  0  0  0  0  0  0
    5.5055   -3.5195    0.0000 H   0  0  0  0  0  0  0  0  0  0  0  0
    4.4617   -1.7275    0.0000 H   0  0  0  0  0  0  0  0  0  0  0  0
    3.8441   -2.3499    0.0000 H   0  0  0  0  0  0  0  0  0  0  0  0
    4.4665   -2.9675    0.0000 H   0  0  0  0  0  0  0  0  0  0  0  0
    8.1301   -3.4428    0.0000 H   0  0  0  0  0  0  0  0  0  0  0  0
    9.5331   -2.6328    0.0000 H   0  0  0  0  0  0  0  0  0  0  0  0
    5.3278    2.3067    0.0000 H   0  0  0  0  0  0  0  0  0  0  0  0
    4.9213    1.6211    0.0000 H   0  0  0  0  0  0  0  0  0  0  0  0
    6.9453    2.5154    0.0000 H   0  0  0  0  0  0  0  0  0  0  0  0
   10.4395   -1.1322    0.0000 H   0  0  0  0  0  0  0  0  0  0  0  0
   10.4523    0.5336    0.0000 H   0  0  0  0  0  0  0  0  0  0  0  0
    7.0364    3.2044    0.0000 H   0  0  0  0  0  0  0  0  0  0  0  0
    6.4236    3.8315    0.0000 H   0  0  0  0  0  0  0  0  0  0  0  0
    5.7964    3.2188    0.0000 H   0  0  0  0  0  0  0  0  0  0  0  0
    6.9488    1.1684    0.0000 H   0  0  0  0  0  0  0  0  0  0  0  0
    7.7983    1.3855    0.0000 H   0  0  0  0  0  0  0  0  0  0  0  0
    7.5812    2.2350    0.0000 H   0  0  0  0  0  0  0  0  0  0  0  0
    1.6921   -0.7505    0.0000 H   0  0  0  0  0  0  0  0  0  0  0  0
    1.4619   -1.5966    0.0000 H   0  0  0  0  0  0  0  0  0  0  0  0
    2.3079   -1.8268    0.0000 H   0  0  0  0  0  0  0  0  0  0  0  0
    2.3361    0.5201    0.0000 H   0  0  0  0  0  0  0  0  0  0  0  0
    4.0477    0.1665    0.0000 H   0  0  0  0  0  0  0  0  0  0  0  0
    4.2779    1.0126    0.0000 H   0  0  0  0  0  0  0  0  0  0  0  0
    3.4318    1.2428    0.0000 H   0  0  0  0  0  0  0  0  0  0  0  0
  1  8  1  0  0  0  0
  1 12  1  0  0  0  0
  9  2  1  6  0  0  0
  2 21  1  0  0  0  0
 10  3  1  6  0  0  0
  3 19  1  0  0  0  0
  4 15  1  0  0  0  0
  4 24  1  0  0  0  0
  5 19  2  0  0  0  0
  6 21  2  0  0  0  0
  7 24  2  0  0  0  0
  8  9  1  0  0  0  0
  8 13  1  0  0  0  0
  8 14  1  0  0  0  0
  9 10  1  0  0  0  0
  9 32  1  0  0  0  0
 10 11  1  0  0  0  0
 10 33  1  0  0  0  0
 11 12  2  0  0  0  0
 11 15  1  0  0  0  0
 12 16  1  0  0  0  0
 13 34  1  0  0  0  0
 13 35  1  0  0  0  0
 13 36  1  0  0  0  0
 14 37  1  0  0  0  0
 14 38  1  0  0  0  0
 14 39  1  0  0  0  0
 15 17  2  0  0  0  0
 16 18  2  0  0  0  0
 16 40  1  0  0  0  0
 17 18  1  0  0  0  0
 17 23  1  0  0  0  0
 18 41  1  0  0  0  0
 19 20  1  0  0  0  0
 20 22  1  0  0  0  0
 20 42  1  0  0  0  0
 20 43  1  0  0  0  0
 21 26  1  0  0  0  0
 22 27  1  0  0  0  0
 22 28  1  0  0  0  0
 22 44  1  0  0  0  0
 23 25  2  0  0  0  0
 23 45  1  0  0  0  0
 24 25  1  0  0  0  0
 25 46  1  0  0  0  0
 26 29  1  0  0  0  0
 26 30  2  0  0  0  0
 27 47  1  0  0  0  0
 27 48  1  0  0  0  0
 27 49  1  0  0  0  0
 28 50  1  0  0  0  0
 28 51  1  0  0  0  0
 28 52  1  0  0  0  0
 29 53  1  0  0  0  0
 29 54  1  0  0  0  0
 29 55  1  0  0  0  0
 30 31  1  0  0  0  0
 30 56  1  0  0  0  0
 31 57  1  0  0  0  0
 31 58  1  0  0  0  0
 31 59  1  0  0  0  0
M  END
> <PUBCHEM_COMPOUND_CID>
5320692

> <PUBCHEM_COMPOUND_CANONICALIZED>
1

> <PUBCHEM_CACTVS_COMPLEXITY>
779

> <PUBCHEM_CACTVS_HBOND_ACCEPTOR>
7

> <PUBCHEM_CACTVS_HBOND_DONOR>
0

> <PUBCHEM_CACTVS_ROTATABLE_BOND>
7

> <PUBCHEM_CACTVS_SUBSKEYS>
AAADceB4OAAAAAAAAAAAAAAAAAAAAAAAAAA0QIAAAAAAAACRAAAAGgAAAAAADVSgmAIyDoAABACIAiDSCAACCAAgIAAIiAEGCMgNJzKEMRqCOiClwBUKqYfA4PwOIAACCAAIAABAAAQQABAAAAAAAAAAAA==

> <PUBCHEM_IUPAC_OPENEYE_NAME>
[(9R,10R)-8,8-dimethyl-10-(3-methylbutanoyloxy)-2-oxo-9,10-dihydropyrano[2,3-f]chromen-9-yl] (Z)-2-methylbut-2-enoate

> <PUBCHEM_IUPAC_CAS_NAME>
(Z)-2-methyl-2-butenoic acid [(9R,10R)-8,8-dimethyl-10-(3-methyl-1-oxobutoxy)-2-oxo-9,10-dihydropyrano[2,3-f][1]benzopyran-9-yl] ester

> <PUBCHEM_IUPAC_NAME_MARKUP>
[(9<I>R</I>,10<I>R</I>)-8,8-dimethyl-10-(3-methylbutanoyloxy)-2-oxo-9,10-dihydropyrano[2,3-f]chromen-9-yl] (<I>Z</I>)-2-methylbut-2-enoate

> <PUBCHEM_IUPAC_NAME>
[(9R,10R)-8,8-dimethyl-10-(3-methylbutanoyloxy)-2-oxo-9,10-dihydropyrano[2,3-f]chromen-9-yl] (Z)-2-methylbut-2-enoate

> <PUBCHEM_IUPAC_SYSTEMATIC_NAME>
[(9R,10R)-8,8-dimethyl-10-(3-methylbutanoyloxy)-2-oxidanylidene-9,10-dihydropyrano[2,3-f]chromen-9-yl] (Z)-2-methylbut-2-enoate

> <PUBCHEM_IUPAC_TRADITIONAL_NAME>
(Z)-2-methylbut-2-enoic acid [(9R,10R)-10-isovaleryloxy-2-keto-8,8-dimethyl-9,10-dihydropyrano[2,3-f]chromen-9-yl] ester

> <PUBCHEM_IUPAC_INCHI>
InChI=1S/C24H28O7/c1-7-14(4)23(27)30-22-21(29-18(26)12-13(2)3)19-16(31-24(22,5)6)10-8-15-9-11-17(25)28-20(15)19/h7-11,13,21-22H,12H2,1-6H3/b14-7-/t21-,22-/m1/s1

> <PUBCHEM_IUPAC_INCHIKEY>
UFUVJROSOIXJGR-IULGZIFLSA-N

> <PUBCHEM_XLOGP3_AA>
4.4

> <PUBCHEM_EXACT_MASS>
428.18350323

> <PUBCHEM_MOLECULAR_FORMULA>
C24H28O7

> <PUBCHEM_MOLECULAR_WEIGHT>
428.5

> <PUBCHEM_OPENEYE_CAN_SMILES>
CC=C(C)C(=O)OC1C(C2=C(C=CC3=C2OC(=O)C=C3)OC1(C)C)OC(=O)CC(C)C

> <PUBCHEM_OPENEYE_ISO_SMILES>
C/C=C(/C)\C(=O)O[C@@H]1[C@@H](C2=C(C=CC3=C2OC(=O)C=C3)OC1(C)C)OC(=O)CC(C)C

> <PUBCHEM_CACTVS_TPSA>
88.1

> <PUBCHEM_MONOISOTOPIC_WEIGHT>
428.18350323

> <PUBCHEM_TOTAL_CHARGE>
0

> <PUBCHEM_HEAVY_ATOM_COUNT>
31

> <PUBCHEM_ATOM_DEF_STEREO_COUNT>
2

> <PUBCHEM_ATOM_UDEF_STEREO_COUNT>
0

> <PUBCHEM_BOND_DEF_STEREO_COUNT>
1

> <PUBCHEM_BOND_UDEF_STEREO_COUNT>
0

> <PUBCHEM_ISOTOPIC_ATOM_COUNT>
0

> <PUBCHEM_COMPONENT_COUNT>
1

> <PUBCHEM_CACTVS_TAUTO_COUNT>
1

> <PUBCHEM_COORDINATE_TYPE>
1
5
255

> <PUBCHEM_BONDANNOTATIONS>
11  12  8
11  15  8
12  16  8
15  17  8
16  18  8
17  18  8
17  23  8
9  2  6
23  25  8
24  25  8
10  3  6
4  15  8
4  24  8

$$$$
