5944
  -OEChem-10012202162D

 26 28  0     1  0  0  0  0  0999 V2000
    3.4267    2.0750    0.0000 O   0  0  0  0  0  0  0  0  0  0  0  0
    5.9302   -0.5190    0.0000 O   0  0  0  0  0  0  0  0  0  0  0  0
    5.0733   -2.0750    0.0000 O   0  0  0  0  0  0  0  0  0  0  0  0
    6.2740    1.2238    0.0000 O   0  0  0  0  0  0  0  0  0  0  0  0
    4.3216   -0.4656    0.0000 C   0  0  2  0  0  0  0  0  0  0  0  0
    4.6636    0.4741    0.0000 C   0  0  1  0  0  0  0  0  0  0  0  0
    2.9489    0.1265    0.0000 C   0  0  2  0  0  0  0  0  0  0  0  0
    2.6901    1.0924    0.0000 C   0  0  1  0  0  0  0  0  0  0  0  0
    1.5499   -0.3824    0.0000 C   0  0  0  0  0  0  0  0  0  0  0  0
    1.2911    0.5836    0.0000 C   0  0  0  0  0  0  0  0  0  0  0  0
    5.1065   -1.0756    0.0000 C   0  0  0  0  0  0  0  0  0  0  0  0
    3.9796   -1.4053    0.0000 C   0  0  0  0  0  0  0  0  0  0  0  0
    5.6570    0.4369    0.0000 C   0  0  0  0  0  0  0  0  0  0  0  0
    5.0056    1.4138    0.0000 C   0  0  0  0  0  0  0  0  0  0  0  0
    3.1689   -0.6946    0.0000 H   0  0  0  0  0  0  0  0  0  0  0  0
    2.4701    1.9134    0.0000 H   0  0  0  0  0  0  0  0  0  0  0  0
    1.7449   -0.9709    0.0000 H   0  0  0  0  0  0  0  0  0  0  0  0
    0.9560   -0.5601    0.0000 H   0  0  0  0  0  0  0  0  0  0  0  0
    0.6972    0.4058    0.0000 H   0  0  0  0  0  0  0  0  0  0  0  0
    1.0962    1.1721    0.0000 H   0  0  0  0  0  0  0  0  0  0  0  0
    4.5622   -1.6173    0.0000 H   0  0  0  0  0  0  0  0  0  0  0  0
    3.7675   -1.9879    0.0000 H   0  0  0  0  0  0  0  0  0  0  0  0
    3.3970   -1.1932    0.0000 H   0  0  0  0  0  0  0  0  0  0  0  0
    4.4230    1.6259    0.0000 H   0  0  0  0  0  0  0  0  0  0  0  0
    5.2177    1.9964    0.0000 H   0  0  0  0  0  0  0  0  0  0  0  0
    5.5882    1.2018    0.0000 H   0  0  0  0  0  0  0  0  0  0  0  0
  1  7  1  0  0  0  0
  1  8  1  0  0  0  0
  2 11  1  0  0  0  0
  2 13  1  0  0  0  0
  3 11  2  0  0  0  0
  4 13  2  0  0  0  0
  5  6  1  0  0  0  0
  5  7  1  0  0  0  0
  5 11  1  0  0  0  0
  5 12  1  6  0  0  0
  6  8  1  0  0  0  0
  6 13  1  0  0  0  0
  6 14  1  6  0  0  0
  7  9  1  0  0  0  0
  7 15  1  1  0  0  0
  8 10  1  0  0  0  0
  8 16  1  6  0  0  0
  9 10  1  0  0  0  0
  9 17  1  0  0  0  0
  9 18  1  0  0  0  0
 10 19  1  0  0  0  0
 10 20  1  0  0  0  0
 12 21  1  0  0  0  0
 12 22  1  0  0  0  0
 12 23  1  0  0  0  0
 14 24  1  0  0  0  0
 14 25  1  0  0  0  0
 14 26  1  0  0  0  0
M  END
> <PUBCHEM_COMPOUND_CID>
5944

> <PUBCHEM_COMPOUND_CANONICALIZED>
1

> <PUBCHEM_CACTVS_COMPLEXITY>
318

> <PUBCHEM_CACTVS_HBOND_ACCEPTOR>
4

> <PUBCHEM_CACTVS_HBOND_DONOR>
0

> <PUBCHEM_CACTVS_ROTATABLE_BOND>
0

> <PUBCHEM_CACTVS_SUBSKEYS>
AAADccBwOAAAAAAAAAAAAAAAAAAAASJEgAAwAAAAAAASAAAAAAAAGgAAAAAADhSggAICCAAABAAIAACQCAAAAAAAAAAAAAEAAAAAABYAAAACAAAFIAAAAAHLyPCPgAAAAAAAAAAAAAIAADAAAAAAAAAAAA==

> <PUBCHEM_IUPAC_OPENEYE_NAME>
(1S,2R,6S,7R)-2,6-dimethyl-4,10-dioxatricyclo[5.2.1.02,6]decane-3,5-dione

> <PUBCHEM_IUPAC_CAS_NAME>
(1S,2R,6S,7R)-2,6-dimethyl-4,10-dioxatricyclo[5.2.1.02,6]decane-3,5-dione

> <PUBCHEM_IUPAC_NAME_MARKUP>
(1<I>S</I>,2<I>R</I>,6<I>S</I>,7<I>R</I>)-2,6-dimethyl-4,10-dioxatricyclo[5.2.1.0<SUP>2,6</SUP>]decane-3,5-dione

> <PUBCHEM_IUPAC_NAME>
(1S,2R,6S,7R)-2,6-dimethyl-4,10-dioxatricyclo[5.2.1.02,6]decane-3,5-dione

> <PUBCHEM_IUPAC_SYSTEMATIC_NAME>
(1S,2R,6S,7R)-2,6-dimethyl-4,10-dioxatricyclo[5.2.1.02,6]decane-3,5-dione

> <PUBCHEM_IUPAC_TRADITIONAL_NAME>
(1S,2R,6S,7R)-2,6-dimethyl-4,10-dioxatricyclo[5.2.1.02,6]decane-3,5-quinone

> <PUBCHEM_IUPAC_INCHI>
InChI=1S/C10H12O4/c1-9-5-3-4-6(13-5)10(9,2)8(12)14-7(9)11/h5-6H,3-4H2,1-2H3/t5-,6+,9+,10-

> <PUBCHEM_IUPAC_INCHIKEY>
DHZBEENLJMYSHQ-XCVPVQRUSA-N

> <PUBCHEM_XLOGP3_AA>
0.6

> <PUBCHEM_EXACT_MASS>
196.07355886

> <PUBCHEM_MOLECULAR_FORMULA>
C10H12O4

> <PUBCHEM_MOLECULAR_WEIGHT>
196.20

> <PUBCHEM_OPENEYE_CAN_SMILES>
CC12C3CCC(C1(C(=O)OC2=O)C)O3

> <PUBCHEM_OPENEYE_ISO_SMILES>
C[C@@]12[C@H]3CC[C@@H]([C@@]1(C(=O)OC2=O)C)O3

> <PUBCHEM_CACTVS_TPSA>
52.6

> <PUBCHEM_MONOISOTOPIC_WEIGHT>
196.07355886

> <PUBCHEM_TOTAL_CHARGE>
0

> <PUBCHEM_HEAVY_ATOM_COUNT>
14

> <PUBCHEM_ATOM_DEF_STEREO_COUNT>
4

> <PUBCHEM_ATOM_UDEF_STEREO_COUNT>
0

> <PUBCHEM_BOND_DEF_STEREO_COUNT>
0

> <PUBCHEM_BOND_UDEF_STEREO_COUNT>
0

> <PUBCHEM_ISOTOPIC_ATOM_COUNT>
0

> <PUBCHEM_COMPONENT_COUNT>
1

> <PUBCHEM_CACTVS_TAUTO_COUNT>
-1

> <PUBCHEM_COORDINATE_TYPE>
1
5
255

> <PUBCHEM_BONDANNOTATIONS>
5  12  6
6  14  6
7  15  5
8  16  6

$$$$
