6169
  -OEChem-10012202132D

 54 57  0     1  0  0  0  0  0999 V2000
    3.9383    0.0000    0.0000 Cl  0  0  0  0  0  0  0  0  0  0  0  0
    7.9100    4.2608    0.0000 O   0  0  0  0  0  0  0  0  0  0  0  0
    6.1655    3.7568    0.0000 O   0  0  0  0  0  0  0  0  0  0  0  0
    4.8918    4.9306    0.0000 O   0  0  0  0  0  0  0  0  0  0  0  0
    5.5712    8.4468    0.0000 N   0  0  3  0  0  0  0  0  0  0  0  0
    3.1182    7.3293    0.0000 N   0  0  0  0  0  0  0  0  0  0  0  0
    6.2258    6.4837    0.0000 C   0  0  2  0  0  0  0  0  0  0  0  0
    6.9228    7.2578    0.0000 C   0  0  2  0  0  0  0  0  0  0  0  0
    5.2086    6.7081    0.0000 C   0  0  0  0  0  0  0  0  0  0  0  0
    4.9021    7.7036    0.0000 C   0  0  1  0  0  0  0  0  0  0  0  0
    6.5451    5.4468    0.0000 C   0  0  2  0  0  0  0  0  0  0  0  0
    6.5933    8.2459    0.0000 C   0  0  0  0  0  0  0  0  0  0  0  0
    7.9874    7.0486    0.0000 C   0  0  0  0  0  0  0  0  0  0  0  0
    7.6047    5.2130    0.0000 C   0  0  2  0  0  0  0  0  0  0  0  0
    8.3307    6.0193    0.0000 C   0  0  0  0  0  0  0  0  0  0  0  0
    3.9239    7.9115    0.0000 C   0  0  0  0  0  0  0  0  0  0  0  0
    5.2622    9.3978    0.0000 C   0  0  0  0  0  0  0  0  0  0  0  0
    3.6149    8.8626    0.0000 C   0  0  0  0  0  0  0  0  0  0  0  0
    4.2840    9.6057    0.0000 C   0  0  0  0  0  0  0  0  0  0  0  0
    5.8675    4.7114    0.0000 C   0  0  0  0  0  0  0  0  0  0  0  0
    2.6208    8.8600    0.0000 C   0  0  0  0  0  0  0  0  0  0  0  0
    2.3145    7.9143    0.0000 C   0  0  0  0  0  0  0  0  0  0  0  0
    1.9392    9.6395    0.0000 C   0  0  0  0  0  0  0  0  0  0  0  0
    1.3053    7.6826    0.0000 C   0  0  0  0  0  0  0  0  0  0  0  0
    0.9250    9.4312    0.0000 C   0  0  0  0  0  0  0  0  0  0  0  0
    0.6058    8.4461    0.0000 C   0  0  0  0  0  0  0  0  0  0  0  0
    5.4878    3.0215    0.0000 C   0  0  0  0  0  0  0  0  0  0  0  0
    5.6498    5.8586    0.0000 H   0  0  0  0  0  0  0  0  0  0  0  0
    7.4842    7.8960    0.0000 H   0  0  0  0  0  0  0  0  0  0  0  0
    4.5936    6.6297    0.0000 H   0  0  0  0  0  0  0  0  0  0  0  0
    5.1806    6.0888    0.0000 H   0  0  0  0  0  0  0  0  0  0  0  0
    4.3285    7.0764    0.0000 H   0  0  0  0  0  0  0  0  0  0  0  0
    6.7310    4.8553    0.0000 H   0  0  0  0  0  0  0  0  0  0  0  0
    7.2063    8.3385    0.0000 H   0  0  0  0  0  0  0  0  0  0  0  0
    6.6070    8.8658    0.0000 H   0  0  0  0  0  0  0  0  0  0  0  0
    8.6005    7.1412    0.0000 H   0  0  0  0  0  0  0  0  0  0  0  0
    8.0011    7.6684    0.0000 H   0  0  0  0  0  0  0  0  0  0  0  0
    8.2109    5.0829    0.0000 H   0  0  0  0  0  0  0  0  0  0  0  0
    8.7136    5.5317    0.0000 H   0  0  0  0  0  0  0  0  0  0  0  0
    8.8766    6.3132    0.0000 H   0  0  0  0  0  0  0  0  0  0  0  0
    5.8762    9.4841    0.0000 H   0  0  0  0  0  0  0  0  0  0  0  0
    5.2838   10.0174    0.0000 H   0  0  0  0  0  0  0  0  0  0  0  0
    4.5163   10.1806    0.0000 H   0  0  0  0  0  0  0  0  0  0  0  0
    3.7582    9.9343    0.0000 H   0  0  0  0  0  0  0  0  0  0  0  0
    3.1171    6.7093    0.0000 H   0  0  0  0  0  0  0  0  0  0  0  0
    8.5160    4.1295    0.0000 H   0  0  0  0  0  0  0  0  0  0  0  0
    2.1371   10.2271    0.0000 H   0  0  0  0  0  0  0  0  0  0  0  0
    1.1210    7.0906    0.0000 H   0  0  0  0  0  0  0  0  0  0  0  0
    0.5115    9.8931    0.0000 H   0  0  0  0  0  0  0  0  0  0  0  0
    0.0000    8.3143    0.0000 H   0  0  0  0  0  0  0  0  0  0  0  0
    5.0319    3.4416    0.0000 H   0  0  0  0  0  0  0  0  0  0  0  0
    5.0676    2.5656    0.0000 H   0  0  0  0  0  0  0  0  0  0  0  0
    5.9437    2.6013    0.0000 H   0  0  0  0  0  0  0  0  0  0  0  0
    4.9383    0.0000    0.0000 H   0  0  0  0  0  0  0  0  0  0  0  0
  1 54  1  0  0  0  0
 14  2  1  6  0  0  0
  2 46  1  0  0  0  0
  3 20  1  0  0  0  0
  3 27  1  0  0  0  0
  4 20  2  0  0  0  0
  5 10  1  0  0  0  0
  5 12  1  0  0  0  0
  5 17  1  0  0  0  0
  6 16  1  0  0  0  0
  6 22  1  0  0  0  0
  6 45  1  0  0  0  0
  7  8  1  0  0  0  0
  7  9  1  0  0  0  0
  7 11  1  0  0  0  0
  7 28  1  6  0  0  0
  8 12  1  0  0  0  0
  8 13  1  0  0  0  0
  8 29  1  1  0  0  0
  9 10  1  0  0  0  0
  9 30  1  0  0  0  0
  9 31  1  0  0  0  0
 10 16  1  0  0  0  0
 10 32  1  6  0  0  0
 11 14  1  0  0  0  0
 11 20  1  6  0  0  0
 11 33  1  0  0  0  0
 12 34  1  0  0  0  0
 12 35  1  0  0  0  0
 13 15  1  0  0  0  0
 13 36  1  0  0  0  0
 13 37  1  0  0  0  0
 14 15  1  0  0  0  0
 14 38  1  0  0  0  0
 15 39  1  0  0  0  0
 15 40  1  0  0  0  0
 16 18  2  0  0  0  0
 17 19  1  0  0  0  0
 17 41  1  0  0  0  0
 17 42  1  0  0  0  0
 18 19  1  0  0  0  0
 18 21  1  0  0  0  0
 19 43  1  0  0  0  0
 19 44  1  0  0  0  0
 21 22  1  0  0  0  0
 21 23  2  0  0  0  0
 22 24  2  0  0  0  0
 23 25  1  0  0  0  0
 23 47  1  0  0  0  0
 24 26  1  0  0  0  0
 24 48  1  0  0  0  0
 25 26  2  0  0  0  0
 25 49  1  0  0  0  0
 26 50  1  0  0  0  0
 27 51  1  0  0  0  0
 27 52  1  0  0  0  0
 27 53  1  0  0  0  0
M  END
> <PUBCHEM_COMPOUND_CID>
6169

> <PUBCHEM_COMPOUND_CANONICALIZED>
1

> <PUBCHEM_CACTVS_COMPLEXITY>
555

> <PUBCHEM_CACTVS_HBOND_ACCEPTOR>
4

> <PUBCHEM_CACTVS_HBOND_DONOR>
3

> <PUBCHEM_CACTVS_ROTATABLE_BOND>
2

> <PUBCHEM_CACTVS_SUBSKEYS>
AAADceB7MAAEAAAAAAAAAAAAAAAAAWAAAAA8eIEAAAAAAFix8AAAHgAQCAAADTzhngYyyPPJlgCoAyTyTACCgCAhAiAImSE4ZJgIcPbAkZGUYAhlsADIyAeY2fOegAAAAAACAABAAAYAADQAAAAAAAAAAA==

> <PUBCHEM_IUPAC_OPENEYE_NAME>
methyl (1S,15R,18S,19R,20S)-18-hydroxy-1,3,11,12,14,15,16,17,18,19,20,21-dodecahydroyohimban-19-carboxylate;hydrochloride

> <PUBCHEM_IUPAC_CAS_NAME>
(1S,15R,18S,19R,20S)-18-hydroxy-1,3,11,12,14,15,16,17,18,19,20,21-dodecahydroyohimban-19-carboxylic acid methyl ester;hydrochloride

> <PUBCHEM_IUPAC_NAME_MARKUP>
methyl (1<I>S</I>,15<I>R</I>,18<I>S</I>,19<I>R</I>,20<I>S</I>)-18-hydroxy-1,3,11,12,14,15,16,17,18,19,20,21-dodecahydroyohimban-19-carboxylate;hydrochloride

> <PUBCHEM_IUPAC_NAME>
methyl (1S,15R,18S,19R,20S)-18-hydroxy-1,3,11,12,14,15,16,17,18,19,20,21-dodecahydroyohimban-19-carboxylate;hydrochloride

> <PUBCHEM_IUPAC_SYSTEMATIC_NAME>
methyl (1S,15R,18S,19R,20S)-18-oxidanyl-1,3,11,12,14,15,16,17,18,19,20,21-dodecahydroyohimban-19-carboxylate;hydrochloride

> <PUBCHEM_IUPAC_TRADITIONAL_NAME>
(1S,15R,18S,19R,20S)-18-hydroxy-1,3,11,12,14,15,16,17,18,19,20,21-dodecahydroyohimban-19-carboxylic acid methyl ester;hydrochloride

> <PUBCHEM_IUPAC_INCHI>
InChI=1S/C21H26N2O3.ClH/c1-26-21(25)19-15-10-17-20-14(13-4-2-3-5-16(13)22-20)8-9-23(17)11-12(15)6-7-18(19)24;/h2-5,12,15,17-19,22,24H,6-11H2,1H3;1H/t12-,15-,17-,18-,19+;/m0./s1

> <PUBCHEM_IUPAC_INCHIKEY>
PIPZGJSEDRMUAW-VJDCAHTMSA-N

> <PUBCHEM_EXACT_MASS>
390.1710204

> <PUBCHEM_MOLECULAR_FORMULA>
C21H27ClN2O3

> <PUBCHEM_MOLECULAR_WEIGHT>
390.9

> <PUBCHEM_OPENEYE_CAN_SMILES>
COC(=O)C1C(CCC2C1CC3C4=C(CCN3C2)C5=CC=CC=C5N4)O.Cl

> <PUBCHEM_OPENEYE_ISO_SMILES>
COC(=O)[C@H]1[C@H](CC[C@@H]2[C@@H]1C[C@H]3C4=C(CCN3C2)C5=CC=CC=C5N4)O.Cl

> <PUBCHEM_CACTVS_TPSA>
65.6

> <PUBCHEM_MONOISOTOPIC_WEIGHT>
390.1710204

> <PUBCHEM_TOTAL_CHARGE>
0

> <PUBCHEM_HEAVY_ATOM_COUNT>
27

> <PUBCHEM_ATOM_DEF_STEREO_COUNT>
5

> <PUBCHEM_ATOM_UDEF_STEREO_COUNT>
0

> <PUBCHEM_BOND_DEF_STEREO_COUNT>
0

> <PUBCHEM_BOND_UDEF_STEREO_COUNT>
0

> <PUBCHEM_ISOTOPIC_ATOM_COUNT>
0

> <PUBCHEM_COMPONENT_COUNT>
2

> <PUBCHEM_CACTVS_TAUTO_COUNT>
-1

> <PUBCHEM_COORDINATE_TYPE>
1
5
255

> <PUBCHEM_BONDANNOTATIONS>
10  32  6
11  20  6
16  18  8
18  21  8
14  2  6
21  22  8
21  23  8
22  24  8
23  25  8
24  26  8
25  26  8
6  16  8
6  22  8
7  28  6
8  29  5

$$$$
