6426802
  -OEChem-10012202142D

 51 54  0     1  0  0  0  0  0999 V2000
    5.1350   -1.6725    0.0000 O   0  0  0  0  0  0  0  0  0  0  0  0
    6.8671   -1.6725    0.0000 O   0  0  0  0  0  0  0  0  0  0  0  0
    5.1350   -4.6725    0.0000 O   0  0  0  0  0  0  0  0  0  0  0  0
    6.8671   -3.6725    0.0000 O   0  0  0  0  0  0  0  0  0  0  0  0
    3.4030   -3.6725    0.0000 O   0  0  0  0  0  0  0  0  0  0  0  0
    2.5369   -2.1725    0.0000 O   0  0  0  0  0  0  0  0  0  0  0  0
    3.4030   -0.6725    0.0000 O   0  0  0  0  0  0  0  0  0  0  0  0
    8.6431    1.3343    0.0000 O   0  0  0  0  0  0  0  0  0  0  0  0
    5.1350   -0.6725    0.0000 O   0  0  0  0  0  0  0  0  0  0  0  0
    5.1350    1.3275    0.0000 O   0  0  0  0  0  0  0  0  0  0  0  0
    5.9793    2.8589    0.0000 O   0  0  0  0  0  0  0  0  0  0  0  0
   12.1229    4.3625    0.0000 O   0  0  0  0  0  0  0  0  0  0  0  0
    5.1350   -3.6725    0.0000 C   0  0  3  0  0  0  0  0  0  0  0  0
    6.0010   -3.1725    0.0000 C   0  0  3  0  0  0  0  0  0  0  0  0
    4.2690   -3.1725    0.0000 C   0  0  3  0  0  0  0  0  0  0  0  0
    6.0010   -2.1725    0.0000 C   0  0  3  0  0  0  0  0  0  0  0  0
    4.2690   -2.1725    0.0000 C   0  0  3  0  0  0  0  0  0  0  0  0
    3.4030   -1.6725    0.0000 C   0  0  0  0  0  0  0  0  0  0  0  0
    6.8671   -0.6725    0.0000 C   0  0  0  0  0  0  0  0  0  0  0  0
    7.7331   -0.1725    0.0000 C   0  0  0  0  0  0  0  0  0  0  0  0
    6.0010   -0.1725    0.0000 C   0  0  0  0  0  0  0  0  0  0  0  0
    7.7331    0.8275    0.0000 C   0  0  0  0  0  0  0  0  0  0  0  0
    6.8671    1.3275    0.0000 C   0  0  0  0  0  0  0  0  0  0  0  0
    6.0010    0.8275    0.0000 C   0  0  0  0  0  0  0  0  0  0  0  0
    6.8510    2.3690    0.0000 C   0  0  0  0  0  0  0  0  0  0  0  0
    8.6511    2.3759    0.0000 C   0  0  0  0  0  0  0  0  0  0  0  0
    7.7490    2.8967    0.0000 C   0  0  0  0  0  0  0  0  0  0  0  0
    9.5191    2.8726    0.0000 C   0  0  0  0  0  0  0  0  0  0  0  0
    9.5229    3.8726    0.0000 C   0  0  0  0  0  0  0  0  0  0  0  0
   10.3832    2.3692    0.0000 C   0  0  0  0  0  0  0  0  0  0  0  0
   10.3909    4.3692    0.0000 C   0  0  0  0  0  0  0  0  0  0  0  0
   11.2511    2.8659    0.0000 C   0  0  0  0  0  0  0  0  0  0  0  0
   11.2550    3.8659    0.0000 C   0  0  0  0  0  0  0  0  0  0  0  0
    4.5981   -3.9825    0.0000 H   0  0  0  0  0  0  0  0  0  0  0  0
    6.0010   -3.7925    0.0000 H   0  0  0  0  0  0  0  0  0  0  0  0
    3.7320   -2.8625    0.0000 H   0  0  0  0  0  0  0  0  0  0  0  0
    6.0010   -1.5525    0.0000 H   0  0  0  0  0  0  0  0  0  0  0  0
    4.2690   -1.5525    0.0000 H   0  0  0  0  0  0  0  0  0  0  0  0
    5.6720   -4.9825    0.0000 H   0  0  0  0  0  0  0  0  0  0  0  0
    7.4040   -3.3625    0.0000 H   0  0  0  0  0  0  0  0  0  0  0  0
    3.4030   -4.2925    0.0000 H   0  0  0  0  0  0  0  0  0  0  0  0
    8.2700   -0.4825    0.0000 H   0  0  0  0  0  0  0  0  0  0  0  0
    2.0000   -1.8625    0.0000 H   0  0  0  0  0  0  0  0  0  0  0  0
    7.7466    3.5167    0.0000 H   0  0  0  0  0  0  0  0  0  0  0  0
    4.5981   -0.3625    0.0000 H   0  0  0  0  0  0  0  0  0  0  0  0
    4.5981    1.0175    0.0000 H   0  0  0  0  0  0  0  0  0  0  0  0
    8.9872    4.1846    0.0000 H   0  0  0  0  0  0  0  0  0  0  0  0
   10.3808    1.7492    0.0000 H   0  0  0  0  0  0  0  0  0  0  0  0
   10.3933    4.9892    0.0000 H   0  0  0  0  0  0  0  0  0  0  0  0
   11.7868    2.5538    0.0000 H   0  0  0  0  0  0  0  0  0  0  0  0
   12.1253    4.9825    0.0000 H   0  0  0  0  0  0  0  0  0  0  0  0
  1 16  1  0  0  0  0
  1 17  1  0  0  0  0
  2 16  1  0  0  0  0
  2 19  1  0  0  0  0
  3 13  1  0  0  0  0
  3 39  1  0  0  0  0
  4 14  1  0  0  0  0
  4 40  1  0  0  0  0
  5 15  1  0  0  0  0
  5 41  1  0  0  0  0
  6 18  1  0  0  0  0
  6 43  1  0  0  0  0
  7 18  2  0  0  0  0
  8 22  1  0  0  0  0
  8 26  1  0  0  0  0
  9 21  1  0  0  0  0
  9 45  1  0  0  0  0
 10 24  1  0  0  0  0
 10 46  1  0  0  0  0
 11 25  2  0  0  0  0
 12 33  1  0  0  0  0
 12 51  1  0  0  0  0
 13 14  1  0  0  0  0
 13 15  1  0  0  0  0
 13 34  1  0  0  0  0
 14 16  1  0  0  0  0
 14 35  1  0  0  0  0
 15 17  1  0  0  0  0
 15 36  1  0  0  0  0
 16 37  1  0  0  0  0
 17 18  1  0  0  0  0
 17 38  1  0  0  0  0
 19 20  1  0  0  0  0
 19 21  2  0  0  0  0
 20 22  2  0  0  0  0
 20 42  1  0  0  0  0
 21 24  1  0  0  0  0
 22 23  1  0  0  0  0
 23 24  2  0  0  0  0
 23 25  1  0  0  0  0
 25 27  1  0  0  0  0
 26 27  2  0  0  0  0
 26 28  1  0  0  0  0
 27 44  1  0  0  0  0
 28 29  2  0  0  0  0
 28 30  1  0  0  0  0
 29 31  1  0  0  0  0
 29 47  1  0  0  0  0
 30 32  2  0  0  0  0
 30 48  1  0  0  0  0
 31 33  2  0  0  0  0
 31 49  1  0  0  0  0
 32 33  1  0  0  0  0
 32 50  1  0  0  0  0
M  END
> <PUBCHEM_COMPOUND_CID>
6426802

> <PUBCHEM_COMPOUND_CANONICALIZED>
1

> <PUBCHEM_CACTVS_COMPLEXITY>
777

> <PUBCHEM_CACTVS_HBOND_ACCEPTOR>
12

> <PUBCHEM_CACTVS_HBOND_DONOR>
7

> <PUBCHEM_CACTVS_ROTATABLE_BOND>
4

> <PUBCHEM_CACTVS_SUBSKEYS>
AAADceB4PAAAAAAAAAAAAAAAAAAAAAAAAAA0YIEAAAAAAACBQAAAGgAACAAADBSwmAMwDoAABgCIAqDSCAICCAAkIAAIiAFGiMgdNzaGNR6ieWOl4BUPuQfK7LzOIQABCAAIQABCAAIQABCAAAAAAAAAAA==

> <PUBCHEM_IUPAC_OPENEYE_NAME>
6-[5,6-dihydroxy-2-(4-hydroxyphenyl)-4-oxo-chromen-7-yl]oxy-3,4,5-trihydroxy-tetrahydropyran-2-carboxylic acid

> <PUBCHEM_IUPAC_CAS_NAME>
6-[[5,6-dihydroxy-2-(4-hydroxyphenyl)-4-oxo-1-benzopyran-7-yl]oxy]-3,4,5-trihydroxy-2-oxanecarboxylic acid

> <PUBCHEM_IUPAC_NAME_MARKUP>
6-[5,6-dihydroxy-2-(4-hydroxyphenyl)-4-oxochromen-7-yl]oxy-3,4,5-trihydroxyoxane-2-carboxylic acid

> <PUBCHEM_IUPAC_NAME>
6-[5,6-dihydroxy-2-(4-hydroxyphenyl)-4-oxochromen-7-yl]oxy-3,4,5-trihydroxyoxane-2-carboxylic acid

> <PUBCHEM_IUPAC_SYSTEMATIC_NAME>
6-[2-(4-hydroxyphenyl)-5,6-bis(oxidanyl)-4-oxidanylidene-chromen-7-yl]oxy-3,4,5-tris(oxidanyl)oxane-2-carboxylic acid

> <PUBCHEM_IUPAC_TRADITIONAL_NAME>
6-[5,6-dihydroxy-2-(4-hydroxyphenyl)-4-keto-chromen-7-yl]oxy-3,4,5-trihydroxy-tetrahydropyran-2-carboxylic acid

> <PUBCHEM_IUPAC_INCHI>
InChI=1S/C21H18O12/c22-8-3-1-7(2-4-8)10-5-9(23)13-11(31-10)6-12(14(24)15(13)25)32-21-18(28)16(26)17(27)19(33-21)20(29)30/h1-6,16-19,21-22,24-28H,(H,29,30)

> <PUBCHEM_IUPAC_INCHIKEY>
DJSISFGPUUYILV-UHFFFAOYSA-N

> <PUBCHEM_XLOGP3_AA>
0.8

> <PUBCHEM_EXACT_MASS>
462.07982601

> <PUBCHEM_MOLECULAR_FORMULA>
C21H18O12

> <PUBCHEM_MOLECULAR_WEIGHT>
462.4

> <PUBCHEM_OPENEYE_CAN_SMILES>
C1=CC(=CC=C1C2=CC(=O)C3=C(C(=C(C=C3O2)OC4C(C(C(C(O4)C(=O)O)O)O)O)O)O)O

> <PUBCHEM_OPENEYE_ISO_SMILES>
C1=CC(=CC=C1C2=CC(=O)C3=C(C(=C(C=C3O2)OC4C(C(C(C(O4)C(=O)O)O)O)O)O)O)O

> <PUBCHEM_CACTVS_TPSA>
203

> <PUBCHEM_MONOISOTOPIC_WEIGHT>
462.07982601

> <PUBCHEM_TOTAL_CHARGE>
0

> <PUBCHEM_HEAVY_ATOM_COUNT>
33

> <PUBCHEM_ATOM_DEF_STEREO_COUNT>
0

> <PUBCHEM_ATOM_UDEF_STEREO_COUNT>
5

> <PUBCHEM_BOND_DEF_STEREO_COUNT>
0

> <PUBCHEM_BOND_UDEF_STEREO_COUNT>
0

> <PUBCHEM_ISOTOPIC_ATOM_COUNT>
0

> <PUBCHEM_COMPONENT_COUNT>
1

> <PUBCHEM_CACTVS_TAUTO_COUNT>
-1

> <PUBCHEM_COORDINATE_TYPE>
1
5
255

> <PUBCHEM_BONDANNOTATIONS>
17  18  3
19  20  8
19  21  8
16  2  3
20  22  8
21  24  8
22  23  8
23  24  8
23  25  8
25  27  8
26  27  8
28  29  8
28  30  8
29  31  8
13  3  3
30  32  8
31  33  8
32  33  8
14  4  3
15  5  3
8  22  8
8  26  8

$$$$
185617
  -OEChem-10012202142D

 51 54  0     1  0  0  0  0  0999 V2000
    5.1350   -1.6725    0.0000 O   0  0  0  0  0  0  0  0  0  0  0  0
    6.8671   -1.6725    0.0000 O   0  0  0  0  0  0  0  0  0  0  0  0
    5.1350   -4.6725    0.0000 O   0  0  0  0  0  0  0  0  0  0  0  0
    6.8671   -3.6725    0.0000 O   0  0  0  0  0  0  0  0  0  0  0  0
    3.4030   -3.6725    0.0000 O   0  0  0  0  0  0  0  0  0  0  0  0
    2.5369   -2.1725    0.0000 O   0  0  0  0  0  0  0  0  0  0  0  0
    3.4030   -0.6725    0.0000 O   0  0  0  0  0  0  0  0  0  0  0  0
    8.6431    1.3343    0.0000 O   0  0  0  0  0  0  0  0  0  0  0  0
    5.1350   -0.6725    0.0000 O   0  0  0  0  0  0  0  0  0  0  0  0
    5.1350    1.3275    0.0000 O   0  0  0  0  0  0  0  0  0  0  0  0
    5.9793    2.8589    0.0000 O   0  0  0  0  0  0  0  0  0  0  0  0
   12.1229    4.3625    0.0000 O   0  0  0  0  0  0  0  0  0  0  0  0
    5.1350   -3.6725    0.0000 C   0  0  2  0  0  0  0  0  0  0  0  0
    6.0010   -3.1725    0.0000 C   0  0  2  0  0  0  0  0  0  0  0  0
    4.2690   -3.1725    0.0000 C   0  0  1  0  0  0  0  0  0  0  0  0
    6.0010   -2.1725    0.0000 C   0  0  1  0  0  0  0  0  0  0  0  0
    4.2690   -2.1725    0.0000 C   0  0  1  0  0  0  0  0  0  0  0  0
    3.4030   -1.6725    0.0000 C   0  0  0  0  0  0  0  0  0  0  0  0
    6.8671   -0.6725    0.0000 C   0  0  0  0  0  0  0  0  0  0  0  0
    7.7331   -0.1725    0.0000 C   0  0  0  0  0  0  0  0  0  0  0  0
    6.0010   -0.1725    0.0000 C   0  0  0  0  0  0  0  0  0  0  0  0
    7.7331    0.8275    0.0000 C   0  0  0  0  0  0  0  0  0  0  0  0
    6.8671    1.3275    0.0000 C   0  0  0  0  0  0  0  0  0  0  0  0
    6.0010    0.8275    0.0000 C   0  0  0  0  0  0  0  0  0  0  0  0
    6.8510    2.3690    0.0000 C   0  0  0  0  0  0  0  0  0  0  0  0
    8.6511    2.3759    0.0000 C   0  0  0  0  0  0  0  0  0  0  0  0
    7.7490    2.8967    0.0000 C   0  0  0  0  0  0  0  0  0  0  0  0
    9.5191    2.8726    0.0000 C   0  0  0  0  0  0  0  0  0  0  0  0
    9.5229    3.8726    0.0000 C   0  0  0  0  0  0  0  0  0  0  0  0
   10.3832    2.3692    0.0000 C   0  0  0  0  0  0  0  0  0  0  0  0
   10.3909    4.3692    0.0000 C   0  0  0  0  0  0  0  0  0  0  0  0
   11.2511    2.8659    0.0000 C   0  0  0  0  0  0  0  0  0  0  0  0
   11.2550    3.8659    0.0000 C   0  0  0  0  0  0  0  0  0  0  0  0
    4.5981   -3.9825    0.0000 H   0  0  0  0  0  0  0  0  0  0  0  0
    6.0010   -3.7925    0.0000 H   0  0  0  0  0  0  0  0  0  0  0  0
    3.7320   -2.8625    0.0000 H   0  0  0  0  0  0  0  0  0  0  0  0
    6.0010   -1.5525    0.0000 H   0  0  0  0  0  0  0  0  0  0  0  0
    4.2690   -1.5525    0.0000 H   0  0  0  0  0  0  0  0  0  0  0  0
    5.6720   -4.9825    0.0000 H   0  0  0  0  0  0  0  0  0  0  0  0
    7.4040   -3.3625    0.0000 H   0  0  0  0  0  0  0  0  0  0  0  0
    3.4030   -4.2925    0.0000 H   0  0  0  0  0  0  0  0  0  0  0  0
    8.2700   -0.4825    0.0000 H   0  0  0  0  0  0  0  0  0  0  0  0
    2.0000   -1.8625    0.0000 H   0  0  0  0  0  0  0  0  0  0  0  0
    7.7466    3.5167    0.0000 H   0  0  0  0  0  0  0  0  0  0  0  0
    4.5981   -0.3625    0.0000 H   0  0  0  0  0  0  0  0  0  0  0  0
    4.5981    1.0175    0.0000 H   0  0  0  0  0  0  0  0  0  0  0  0
    8.9872    4.1846    0.0000 H   0  0  0  0  0  0  0  0  0  0  0  0
   10.3808    1.7492    0.0000 H   0  0  0  0  0  0  0  0  0  0  0  0
   10.3933    4.9892    0.0000 H   0  0  0  0  0  0  0  0  0  0  0  0
   11.7868    2.5538    0.0000 H   0  0  0  0  0  0  0  0  0  0  0  0
   12.1253    4.9825    0.0000 H   0  0  0  0  0  0  0  0  0  0  0  0
  1 16  1  0  0  0  0
  1 17  1  0  0  0  0
 16  2  1  1  0  0  0
  2 19  1  0  0  0  0
 13  3  1  1  0  0  0
  3 39  1  0  0  0  0
 14  4  1  6  0  0  0
  4 40  1  0  0  0  0
 15  5  1  6  0  0  0
  5 41  1  0  0  0  0
  6 18  1  0  0  0  0
  6 43  1  0  0  0  0
  7 18  2  0  0  0  0
  8 22  1  0  0  0  0
  8 26  1  0  0  0  0
  9 21  1  0  0  0  0
  9 45  1  0  0  0  0
 10 24  1  0  0  0  0
 10 46  1  0  0  0  0
 11 25  2  0  0  0  0
 12 33  1  0  0  0  0
 12 51  1  0  0  0  0
 13 14  1  0  0  0  0
 13 15  1  0  0  0  0
 13 34  1  0  0  0  0
 14 16  1  0  0  0  0
 14 35  1  0  0  0  0
 15 17  1  0  0  0  0
 15 36  1  0  0  0  0
 16 37  1  0  0  0  0
 17 18  1  1  0  0  0
 17 38  1  0  0  0  0
 19 20  1  0  0  0  0
 19 21  2  0  0  0  0
 20 22  2  0  0  0  0
 20 42  1  0  0  0  0
 21 24  1  0  0  0  0
 22 23  1  0  0  0  0
 23 24  2  0  0  0  0
 23 25  1  0  0  0  0
 25 27  1  0  0  0  0
 26 27  2  0  0  0  0
 26 28  1  0  0  0  0
 27 44  1  0  0  0  0
 28 29  2  0  0  0  0
 28 30  1  0  0  0  0
 29 31  1  0  0  0  0
 29 47  1  0  0  0  0
 30 32  2  0  0  0  0
 30 48  1  0  0  0  0
 31 33  2  0  0  0  0
 31 49  1  0  0  0  0
 32 33  1  0  0  0  0
 32 50  1  0  0  0  0
M  END
> <PUBCHEM_COMPOUND_CID>
185617

> <PUBCHEM_COMPOUND_CANONICALIZED>
1

> <PUBCHEM_CACTVS_COMPLEXITY>
777

> <PUBCHEM_CACTVS_HBOND_ACCEPTOR>
12

> <PUBCHEM_CACTVS_HBOND_DONOR>
7

> <PUBCHEM_CACTVS_ROTATABLE_BOND>
4

> <PUBCHEM_CACTVS_SUBSKEYS>
AAADceB4PAAAAAAAAAAAAAAAAAAAAAAAAAA0YIEAAAAAAACBQAAAGgAACAAADBSwmAMwDoAABgCIAqDSCAICCAAkIAAIiAFGiMgdNzaGNR6ieWOl4BUPuQfK7LzOIQABCAAIQABCAAIQABCAAAAAAAAAAA==

> <PUBCHEM_IUPAC_OPENEYE_NAME>
(2S,3S,4S,5R,6S)-6-[5,6-dihydroxy-2-(4-hydroxyphenyl)-4-oxo-chromen-7-yl]oxy-3,4,5-trihydroxy-tetrahydropyran-2-carboxylic acid

> <PUBCHEM_IUPAC_CAS_NAME>
(2S,3S,4S,5R,6S)-6-[[5,6-dihydroxy-2-(4-hydroxyphenyl)-4-oxo-1-benzopyran-7-yl]oxy]-3,4,5-trihydroxy-2-oxanecarboxylic acid

> <PUBCHEM_IUPAC_NAME_MARKUP>
(2<I>S</I>,3<I>S</I>,4<I>S</I>,5<I>R</I>,6<I>S</I>)-6-[5,6-dihydroxy-2-(4-hydroxyphenyl)-4-oxochromen-7-yl]oxy-3,4,5-trihydroxyoxane-2-carboxylic acid

> <PUBCHEM_IUPAC_NAME>
(2S,3S,4S,5R,6S)-6-[5,6-dihydroxy-2-(4-hydroxyphenyl)-4-oxochromen-7-yl]oxy-3,4,5-trihydroxyoxane-2-carboxylic acid

> <PUBCHEM_IUPAC_SYSTEMATIC_NAME>
(2S,3S,4S,5R,6S)-6-[2-(4-hydroxyphenyl)-5,6-bis(oxidanyl)-4-oxidanylidene-chromen-7-yl]oxy-3,4,5-tris(oxidanyl)oxane-2-carboxylic acid

> <PUBCHEM_IUPAC_TRADITIONAL_NAME>
(2S,3S,4S,5R,6S)-6-[5,6-dihydroxy-2-(4-hydroxyphenyl)-4-keto-chromen-7-yl]oxy-3,4,5-trihydroxy-tetrahydropyran-2-carboxylic acid

> <PUBCHEM_IUPAC_INCHI>
InChI=1S/C21H18O12/c22-8-3-1-7(2-4-8)10-5-9(23)13-11(31-10)6-12(14(24)15(13)25)32-21-18(28)16(26)17(27)19(33-21)20(29)30/h1-6,16-19,21-22,24-28H,(H,29,30)/t16-,17-,18+,19-,21+/m0/s1

> <PUBCHEM_IUPAC_INCHIKEY>
DJSISFGPUUYILV-ZFORQUDYSA-N

> <PUBCHEM_XLOGP3_AA>
0.8

> <PUBCHEM_EXACT_MASS>
462.07982601

> <PUBCHEM_MOLECULAR_FORMULA>
C21H18O12

> <PUBCHEM_MOLECULAR_WEIGHT>
462.4

> <PUBCHEM_OPENEYE_CAN_SMILES>
C1=CC(=CC=C1C2=CC(=O)C3=C(C(=C(C=C3O2)OC4C(C(C(C(O4)C(=O)O)O)O)O)O)O)O

> <PUBCHEM_OPENEYE_ISO_SMILES>
C1=CC(=CC=C1C2=CC(=O)C3=C(C(=C(C=C3O2)O[C@H]4[C@@H]([C@H]([C@@H]([C@H](O4)C(=O)O)O)O)O)O)O)O

> <PUBCHEM_CACTVS_TPSA>
203

> <PUBCHEM_MONOISOTOPIC_WEIGHT>
462.07982601

> <PUBCHEM_TOTAL_CHARGE>
0

> <PUBCHEM_HEAVY_ATOM_COUNT>
33

> <PUBCHEM_ATOM_DEF_STEREO_COUNT>
5

> <PUBCHEM_ATOM_UDEF_STEREO_COUNT>
0

> <PUBCHEM_BOND_DEF_STEREO_COUNT>
0

> <PUBCHEM_BOND_UDEF_STEREO_COUNT>
0

> <PUBCHEM_ISOTOPIC_ATOM_COUNT>
0

> <PUBCHEM_COMPONENT_COUNT>
1

> <PUBCHEM_CACTVS_TAUTO_COUNT>
19

> <PUBCHEM_COORDINATE_TYPE>
1
5
255

> <PUBCHEM_BONDANNOTATIONS>
17  18  5
19  20  8
19  21  8
16  2  5
20  22  8
21  24  8
22  23  8
23  24  8
23  25  8
25  27  8
26  27  8
28  29  8
28  30  8
29  31  8
13  3  5
30  32  8
31  33  8
32  33  8
14  4  6
15  5  6
8  22  8
8  26  8

$$$$
