72620
  -OEChem-10012202042D

 24 24  0     0  0  0  0  0  0999 V2000
    2.5586    0.0332    0.0000 O   0  0  0  0  0  0  0  0  0  0  0  0
    3.3101   -1.5273    0.0000 O   0  0  0  0  0  0  0  0  0  0  0  0
    6.4764    0.4038    0.0000 C   0  0  0  0  0  0  0  0  0  0  0  0
    7.3774   -0.0301    0.0000 C   0  0  0  0  0  0  0  0  0  0  0  0
    7.3774    0.8377    0.0000 C   0  0  0  0  0  0  0  0  0  0  0  0
    6.0426   -0.4972    0.0000 C   0  0  0  0  0  0  0  0  0  0  0  0
    6.0426    1.3048    0.0000 C   0  0  0  0  0  0  0  0  0  0  0  0
    5.0676   -0.7197    0.0000 C   0  0  0  0  0  0  0  0  0  0  0  0
    5.0676    1.5273    0.0000 C   0  0  0  0  0  0  0  0  0  0  0  0
    4.2858   -0.0962    0.0000 C   0  0  0  0  0  0  0  0  0  0  0  0
    4.2858    0.9038    0.0000 C   0  0  0  0  0  0  0  0  0  0  0  0
    3.3848   -0.5301    0.0000 C   0  0  0  0  0  0  0  0  0  0  0  0
    7.1084   -0.5887    0.0000 H   0  0  0  0  0  0  0  0  0  0  0  0
    7.9360   -0.2991    0.0000 H   0  0  0  0  0  0  0  0  0  0  0  0
    7.6464    0.5285    0.0000 H   0  0  0  0  0  0  0  0  0  0  0  0
    7.6464    0.2791    0.0000 H   0  0  0  0  0  0  0  0  0  0  0  0
    7.9360    1.1067    0.0000 H   0  0  0  0  0  0  0  0  0  0  0  0
    7.1084    1.3963    0.0000 H   0  0  0  0  0  0  0  0  0  0  0  0
    6.4291   -0.9819    0.0000 H   0  0  0  0  0  0  0  0  0  0  0  0
    6.4291    1.7895    0.0000 H   0  0  0  0  0  0  0  0  0  0  0  0
    4.9297   -1.3242    0.0000 H   0  0  0  0  0  0  0  0  0  0  0  0
    4.9297    2.1317    0.0000 H   0  0  0  0  0  0  0  0  0  0  0  0
    3.7272    1.1728    0.0000 H   0  0  0  0  0  0  0  0  0  0  0  0
    2.0000   -0.2358    0.0000 H   0  0  0  0  0  0  0  0  0  0  0  0
  1 12  1  0  0  0  0
  1 24  1  0  0  0  0
  2 12  2  0  0  0  0
  3  4  1  0  0  0  0
  3  5  1  0  0  0  0
  3  6  1  0  0  0  0
  3  7  1  0  0  0  0
  4 13  1  0  0  0  0
  4 14  1  0  0  0  0
  4 15  1  0  0  0  0
  5 16  1  0  0  0  0
  5 17  1  0  0  0  0
  5 18  1  0  0  0  0
  6  8  2  0  0  0  0
  6 19  1  0  0  0  0
  7  9  2  0  0  0  0
  7 20  1  0  0  0  0
  8 10  1  0  0  0  0
  8 21  1  0  0  0  0
  9 11  1  0  0  0  0
  9 22  1  0  0  0  0
 10 11  2  0  0  0  0
 10 12  1  0  0  0  0
 11 23  1  0  0  0  0
M  END
> <PUBCHEM_COMPOUND_CID>
72620

> <PUBCHEM_COMPOUND_CANONICALIZED>
1

> <PUBCHEM_CACTVS_COMPLEXITY>
280

> <PUBCHEM_CACTVS_HBOND_ACCEPTOR>
2

> <PUBCHEM_CACTVS_HBOND_DONOR>
1

> <PUBCHEM_CACTVS_ROTATABLE_BOND>
1

> <PUBCHEM_CACTVS_SUBSKEYS>
AAADccBwMAAAAAAAAAAAAAAAAAAAAAAAAAAAAAAABAAAAAAAAAAAGgAACAAADgCAgAACCAAAAgCIAiDSCAAAAAAgAAAICAEAAEgIBAAAAQAAUAAAQAAIkYIAAAAAAAAAAAAAAAAAAAAAAAAAAAAAAAAAAA==

> <PUBCHEM_IUPAC_OPENEYE_NAME>
5,5-dimethylcyclohepta-1,3,6-triene-1-carboxylic acid

> <PUBCHEM_IUPAC_CAS_NAME>
5,5-dimethyl-1-cyclohepta-1,3,6-trienecarboxylic acid

> <PUBCHEM_IUPAC_NAME_MARKUP>
5,5-dimethylcyclohepta-1,3,6-triene-1-carboxylic acid

> <PUBCHEM_IUPAC_NAME>
5,5-dimethylcyclohepta-1,3,6-triene-1-carboxylic acid

> <PUBCHEM_IUPAC_SYSTEMATIC_NAME>
5,5-dimethylcyclohepta-1,3,6-triene-1-carboxylic acid

> <PUBCHEM_IUPAC_TRADITIONAL_NAME>
5,5-dimethylcyclohepta-1,3,6-triene-1-carboxylic acid

> <PUBCHEM_IUPAC_INCHI>
InChI=1S/C10H12O2/c1-10(2)6-3-4-8(5-7-10)9(11)12/h3-7H,1-2H3,(H,11,12)

> <PUBCHEM_IUPAC_INCHIKEY>
JHHXPQAUADQJBQ-UHFFFAOYSA-N

> <PUBCHEM_XLOGP3_AA>
2.8

> <PUBCHEM_EXACT_MASS>
164.083729621

> <PUBCHEM_MOLECULAR_FORMULA>
C10H12O2

> <PUBCHEM_MOLECULAR_WEIGHT>
164.20

> <PUBCHEM_OPENEYE_CAN_SMILES>
CC1(C=CC=C(C=C1)C(=O)O)C

> <PUBCHEM_OPENEYE_ISO_SMILES>
CC1(C=CC=C(C=C1)C(=O)O)C

> <PUBCHEM_CACTVS_TPSA>
37.3

> <PUBCHEM_MONOISOTOPIC_WEIGHT>
164.083729621

> <PUBCHEM_TOTAL_CHARGE>
0

> <PUBCHEM_HEAVY_ATOM_COUNT>
12

> <PUBCHEM_ATOM_DEF_STEREO_COUNT>
0

> <PUBCHEM_ATOM_UDEF_STEREO_COUNT>
0

> <PUBCHEM_BOND_DEF_STEREO_COUNT>
0

> <PUBCHEM_BOND_UDEF_STEREO_COUNT>
0

> <PUBCHEM_ISOTOPIC_ATOM_COUNT>
0

> <PUBCHEM_COMPONENT_COUNT>
1

> <PUBCHEM_CACTVS_TAUTO_COUNT>
1

> <PUBCHEM_COORDINATE_TYPE>
1
5
255

$$$$
