72703
  -OEChem-10012202202D

 41 44  0     0  0  0  0  0  0999 V2000
    4.5065    0.0000    0.0000 Cl  0  5  0  0  0  0  0  0  0  0  0  0
    9.3629    4.1398    0.0000 O   0  0  0  0  0  0  0  0  0  0  0  0
    7.9110    3.3016    0.0000 O   0  0  0  0  0  0  0  0  0  0  0  0
    3.2255    8.9608    0.0000 O   0  0  0  0  0  0  0  0  0  0  0  0
    1.4061    7.9290    0.0000 O   0  0  0  0  0  0  0  0  0  0  0  0
    5.9451    7.3832    0.0000 N   0  3  0  0  0  0  0  0  0  0  0  0
    6.8111    7.8832    0.0000 C   0  0  0  0  0  0  0  0  0  0  0  0
    7.6772    7.3832    0.0000 C   0  0  0  0  0  0  0  0  0  0  0  0
    5.9451    6.3832    0.0000 C   0  0  0  0  0  0  0  0  0  0  0  0
    7.6772    6.3832    0.0000 C   0  0  0  0  0  0  0  0  0  0  0  0
    6.8111    5.8832    0.0000 C   0  0  0  0  0  0  0  0  0  0  0  0
    5.0512    7.9178    0.0000 C   0  0  0  0  0  0  0  0  0  0  0  0
    5.0512    5.8485    0.0000 C   0  0  0  0  0  0  0  0  0  0  0  0
    4.1451    7.4040    0.0000 C   0  0  0  0  0  0  0  0  0  0  0  0
    4.1451    6.3623    0.0000 C   0  0  0  0  0  0  0  0  0  0  0  0
    8.5872    5.8763    0.0000 C   0  0  0  0  0  0  0  0  0  0  0  0
    6.7951    4.8416    0.0000 C   0  0  0  0  0  0  0  0  0  0  0  0
    8.5952    4.8347    0.0000 C   0  0  0  0  0  0  0  0  0  0  0  0
    7.6931    4.3139    0.0000 C   0  0  0  0  0  0  0  0  0  0  0  0
    3.2140    7.9609    0.0000 C   0  0  0  0  0  0  0  0  0  0  0  0
    3.2140    5.8054    0.0000 C   0  0  0  0  0  0  0  0  0  0  0  0
    2.2702    7.4256    0.0000 C   0  0  0  0  0  0  0  0  0  0  0  0
    8.9409    3.1943    0.0000 C   0  0  0  0  0  0  0  0  0  0  0  0
    2.2702    6.3406    0.0000 C   0  0  0  0  0  0  0  0  0  0  0  0
    0.5381    7.4323    0.0000 C   0  0  0  0  0  0  0  0  0  0  0  0
    7.2097    8.3581    0.0000 H   0  0  0  0  0  0  0  0  0  0  0  0
    6.4126    8.3581    0.0000 H   0  0  0  0  0  0  0  0  0  0  0  0
    8.2878    7.2755    0.0000 H   0  0  0  0  0  0  0  0  0  0  0  0
    7.8892    7.9658    0.0000 H   0  0  0  0  0  0  0  0  0  0  0  0
    5.0583    8.5378    0.0000 H   0  0  0  0  0  0  0  0  0  0  0  0
    5.0583    5.2285    0.0000 H   0  0  0  0  0  0  0  0  0  0  0  0
    9.1205    6.1925    0.0000 H   0  0  0  0  0  0  0  0  0  0  0  0
    6.2546    4.5379    0.0000 H   0  0  0  0  0  0  0  0  0  0  0  0
    3.2211    5.1854    0.0000 H   0  0  0  0  0  0  0  0  0  0  0  0
    8.8122    2.5878    0.0000 H   0  0  0  0  0  0  0  0  0  0  0  0
    9.5305    3.0025    0.0000 H   0  0  0  0  0  0  0  0  0  0  0  0
    1.7344    6.0286    0.0000 H   0  0  0  0  0  0  0  0  0  0  0  0
    2.6922    9.2770    0.0000 H   0  0  0  0  0  0  0  0  0  0  0  0
    0.2302    7.9704    0.0000 H   0  0  0  0  0  0  0  0  0  0  0  0
    0.0000    7.1244    0.0000 H   0  0  0  0  0  0  0  0  0  0  0  0
    0.8461    6.8942    0.0000 H   0  0  0  0  0  0  0  0  0  0  0  0
  2 18  1  0  0  0  0
  2 23  1  0  0  0  0
  3 19  1  0  0  0  0
  3 23  1  0  0  0  0
  4 20  1  0  0  0  0
  4 38  1  0  0  0  0
  5 22  1  0  0  0  0
  5 25  1  0  0  0  0
  6  7  1  0  0  0  0
  6  9  2  0  0  0  0
  6 12  1  0  0  0  0
  7  8  1  0  0  0  0
  7 26  1  0  0  0  0
  7 27  1  0  0  0  0
  8 10  1  0  0  0  0
  8 28  1  0  0  0  0
  8 29  1  0  0  0  0
  9 11  1  0  0  0  0
  9 13  1  0  0  0  0
 10 11  1  0  0  0  0
 10 16  2  0  0  0  0
 11 17  2  0  0  0  0
 12 14  2  0  0  0  0
 12 30  1  0  0  0  0
 13 15  2  0  0  0  0
 13 31  1  0  0  0  0
 14 15  1  0  0  0  0
 14 20  1  0  0  0  0
 15 21  1  0  0  0  0
 16 18  1  0  0  0  0
 16 32  1  0  0  0  0
 17 19  1  0  0  0  0
 17 33  1  0  0  0  0
 18 19  2  0  0  0  0
 20 22  2  0  0  0  0
 21 24  2  0  0  0  0
 21 34  1  0  0  0  0
 22 24  1  0  0  0  0
 23 35  1  0  0  0  0
 23 36  1  0  0  0  0
 24 37  1  0  0  0  0
 25 39  1  0  0  0  0
 25 40  1  0  0  0  0
 25 41  1  0  0  0  0
M  CHG  2   1  -1   6   1
M  END
> <PUBCHEM_COMPOUND_CID>
72703

> <PUBCHEM_COMPOUND_CANONICALIZED>
1

> <PUBCHEM_CACTVS_COMPLEXITY>
474

> <PUBCHEM_CACTVS_HBOND_ACCEPTOR>
5

> <PUBCHEM_CACTVS_HBOND_DONOR>
1

> <PUBCHEM_CACTVS_ROTATABLE_BOND>
1

> <PUBCHEM_CACTVS_SUBSKEYS>
AAADceB6OAAEAAAAAAAAAAAAAAAAASAAAAA8eIEAAAAAAEix9AAAHgAACAAADAzBngc+jtMMFgCgAzRnRACCiCAxIiAI2CA+7JgdJuLGsZukcCtmwBnP+Aew0PMOoAABAAAYQABAAAIAADCAAAAAAAAAAA==

> <PUBCHEM_IUPAC_OPENEYE_NAME>
17-methoxy-5,7-dioxa-13-azoniapentacyclo[11.8.0.02,10.04,8.015,20]henicosa-1(13),2,4(8),9,14,16,18,20-octaen-16-ol;chloride

> <PUBCHEM_IUPAC_CAS_NAME>
17-methoxy-5,7-dioxa-13-azoniapentacyclo[11.8.0.02,10.04,8.015,20]heneicosa-1(13),2,4(8),9,14,16,18,20-octaen-16-ol;chloride

> <PUBCHEM_IUPAC_NAME_MARKUP>
17-methoxy-5,7-dioxa-13-azoniapentacyclo[11.8.0.0<SUP>2,10</SUP>.0<SUP>4,8</SUP>.0<SUP>15,20</SUP>]henicosa-1(13),2,4(8),9,14,16,18,20-octaen-16-ol;chloride

> <PUBCHEM_IUPAC_NAME>
17-methoxy-5,7-dioxa-13-azoniapentacyclo[11.8.0.02,10.04,8.015,20]henicosa-1(13),2,4(8),9,14,16,18,20-octaen-16-ol;chloride

> <PUBCHEM_IUPAC_SYSTEMATIC_NAME>
17-methoxy-5,7-dioxa-13-azoniapentacyclo[11.8.0.02,10.04,8.015,20]henicosa-1(13),2,4(8),9,14,16,18,20-octaen-16-ol;chloride

> <PUBCHEM_IUPAC_TRADITIONAL_NAME>
17-methoxy-5,7-dioxa-13-azoniapentacyclo[11.8.0.02,10.04,8.015,20]heneicosa-1(13),2,4(8),9,14,16,18,20-octaen-16-ol;chloride

> <PUBCHEM_IUPAC_INCHI>
InChI=1S/C19H15NO4.ClH/c1-22-16-3-2-11-6-15-13-8-18-17(23-10-24-18)7-12(13)4-5-20(15)9-14(11)19(16)21;/h2-3,6-9H,4-5,10H2,1H3;1H

> <PUBCHEM_IUPAC_INCHIKEY>
GYFSYEVKFOOLFZ-UHFFFAOYSA-N

> <PUBCHEM_EXACT_MASS>
357.0767857

> <PUBCHEM_MOLECULAR_FORMULA>
C19H16ClNO4

> <PUBCHEM_MOLECULAR_WEIGHT>
357.8

> <PUBCHEM_OPENEYE_CAN_SMILES>
COC1=C(C2=C[N+]3=C(C=C2C=C1)C4=CC5=C(C=C4CC3)OCO5)O.[Cl-]

> <PUBCHEM_OPENEYE_ISO_SMILES>
COC1=C(C2=C[N+]3=C(C=C2C=C1)C4=CC5=C(C=C4CC3)OCO5)O.[Cl-]

> <PUBCHEM_CACTVS_TPSA>
51.8

> <PUBCHEM_MONOISOTOPIC_WEIGHT>
357.0767857

> <PUBCHEM_TOTAL_CHARGE>
0

> <PUBCHEM_HEAVY_ATOM_COUNT>
25

> <PUBCHEM_ATOM_DEF_STEREO_COUNT>
0

> <PUBCHEM_ATOM_UDEF_STEREO_COUNT>
0

> <PUBCHEM_BOND_DEF_STEREO_COUNT>
0

> <PUBCHEM_BOND_UDEF_STEREO_COUNT>
0

> <PUBCHEM_ISOTOPIC_ATOM_COUNT>
0

> <PUBCHEM_COMPONENT_COUNT>
2

> <PUBCHEM_CACTVS_TAUTO_COUNT>
3

> <PUBCHEM_COORDINATE_TYPE>
1
5
255

> <PUBCHEM_BONDANNOTATIONS>
10  11  8
10  16  8
11  17  8
12  14  8
13  15  8
14  15  8
14  20  8
15  21  8
16  18  8
17  19  8
18  19  8
20  22  8
21  24  8
22  24  8
6  12  8
6  9  8
9  13  8

$$$$
72704
  -OEChem-10012202202D

 40 44  0     0  0  0  0  0  0999 V2000
   10.8248   -2.0958    0.0000 O   0  0  0  0  0  0  0  0  0  0  0  0
    9.3729   -2.9340    0.0000 O   0  0  0  0  0  0  0  0  0  0  0  0
    4.6874    2.7252    0.0000 O   0  0  0  0  0  0  0  0  0  0  0  0
    2.8680    1.6933    0.0000 O   0  0  0  0  0  0  0  0  0  0  0  0
    7.4070    1.1475    0.0000 N   0  3  0  0  0  0  0  0  0  0  0  0
    8.2730    1.6475    0.0000 C   0  0  0  0  0  0  0  0  0  0  0  0
    9.1390    1.1475    0.0000 C   0  0  0  0  0  0  0  0  0  0  0  0
    7.4070    0.1475    0.0000 C   0  0  0  0  0  0  0  0  0  0  0  0
    9.1390    0.1475    0.0000 C   0  0  0  0  0  0  0  0  0  0  0  0
    8.2730   -0.3525    0.0000 C   0  0  0  0  0  0  0  0  0  0  0  0
    6.5130    1.6822    0.0000 C   0  0  0  0  0  0  0  0  0  0  0  0
    6.5130   -0.3872    0.0000 C   0  0  0  0  0  0  0  0  0  0  0  0
    5.6070    1.1683    0.0000 C   0  0  0  0  0  0  0  0  0  0  0  0
    5.6070    0.1267    0.0000 C   0  0  0  0  0  0  0  0  0  0  0  0
   10.0490   -0.3593    0.0000 C   0  0  0  0  0  0  0  0  0  0  0  0
    8.2570   -1.3940    0.0000 C   0  0  0  0  0  0  0  0  0  0  0  0
   10.0571   -1.4009    0.0000 C   0  0  0  0  0  0  0  0  0  0  0  0
    9.1550   -1.9218    0.0000 C   0  0  0  0  0  0  0  0  0  0  0  0
    4.6758    1.7252    0.0000 C   0  0  0  0  0  0  0  0  0  0  0  0
    4.6758   -0.4302    0.0000 C   0  0  0  0  0  0  0  0  0  0  0  0
    3.7320    1.1900    0.0000 C   0  0  0  0  0  0  0  0  0  0  0  0
   10.4028   -3.0414    0.0000 C   0  0  0  0  0  0  0  0  0  0  0  0
    3.7320    0.1050    0.0000 C   0  0  0  0  0  0  0  0  0  0  0  0
    2.0000    1.1967    0.0000 C   0  0  0  0  0  0  0  0  0  0  0  0
    8.6716    2.1225    0.0000 H   0  0  0  0  0  0  0  0  0  0  0  0
    7.8745    2.1225    0.0000 H   0  0  0  0  0  0  0  0  0  0  0  0
    9.7496    1.0398    0.0000 H   0  0  0  0  0  0  0  0  0  0  0  0
    9.3511    1.7301    0.0000 H   0  0  0  0  0  0  0  0  0  0  0  0
    6.5202    2.3021    0.0000 H   0  0  0  0  0  0  0  0  0  0  0  0
    6.5202   -1.0071    0.0000 H   0  0  0  0  0  0  0  0  0  0  0  0
   10.5824   -0.0431    0.0000 H   0  0  0  0  0  0  0  0  0  0  0  0
    7.7165   -1.6978    0.0000 H   0  0  0  0  0  0  0  0  0  0  0  0
    4.6830   -1.0502    0.0000 H   0  0  0  0  0  0  0  0  0  0  0  0
   10.2741   -3.6479    0.0000 H   0  0  0  0  0  0  0  0  0  0  0  0
   10.9924   -3.2331    0.0000 H   0  0  0  0  0  0  0  0  0  0  0  0
    3.1963   -0.2071    0.0000 H   0  0  0  0  0  0  0  0  0  0  0  0
    4.1541    3.0414    0.0000 H   0  0  0  0  0  0  0  0  0  0  0  0
    1.6921    1.7348    0.0000 H   0  0  0  0  0  0  0  0  0  0  0  0
    1.4619    0.8888    0.0000 H   0  0  0  0  0  0  0  0  0  0  0  0
    2.3079    0.6586    0.0000 H   0  0  0  0  0  0  0  0  0  0  0  0
  1 17  1  0  0  0  0
  1 22  1  0  0  0  0
  2 18  1  0  0  0  0
  2 22  1  0  0  0  0
  3 19  1  0  0  0  0
  3 37  1  0  0  0  0
  4 21  1  0  0  0  0
  4 24  1  0  0  0  0
  5  6  1  0  0  0  0
  5  8  2  0  0  0  0
  5 11  1  0  0  0  0
  6  7  1  0  0  0  0
  6 25  1  0  0  0  0
  6 26  1  0  0  0  0
  7  9  1  0  0  0  0
  7 27  1  0  0  0  0
  7 28  1  0  0  0  0
  8 10  1  0  0  0  0
  8 12  1  0  0  0  0
  9 10  1  0  0  0  0
  9 15  2  0  0  0  0
 10 16  2  0  0  0  0
 11 13  2  0  0  0  0
 11 29  1  0  0  0  0
 12 14  2  0  0  0  0
 12 30  1  0  0  0  0
 13 14  1  0  0  0  0
 13 19  1  0  0  0  0
 14 20  1  0  0  0  0
 15 17  1  0  0  0  0
 15 31  1  0  0  0  0
 16 18  1  0  0  0  0
 16 32  1  0  0  0  0
 17 18  2  0  0  0  0
 19 21  2  0  0  0  0
 20 23  2  0  0  0  0
 20 33  1  0  0  0  0
 21 23  1  0  0  0  0
 22 34  1  0  0  0  0
 22 35  1  0  0  0  0
 23 36  1  0  0  0  0
 24 38  1  0  0  0  0
 24 39  1  0  0  0  0
 24 40  1  0  0  0  0
M  CHG  1   5   1
M  END
> <PUBCHEM_COMPOUND_CID>
72704

> <PUBCHEM_COMPOUND_CANONICALIZED>
1

> <PUBCHEM_CACTVS_COMPLEXITY>
474

> <PUBCHEM_CACTVS_HBOND_ACCEPTOR>
4

> <PUBCHEM_CACTVS_HBOND_DONOR>
1

> <PUBCHEM_CACTVS_ROTATABLE_BOND>
1

> <PUBCHEM_CACTVS_SUBSKEYS>
AAADceB6OAAAAAAAAAAAAAAAAAAAASAAAAA8eIEAAAAAAEix9AAAHgAACAAADAzBngc+jtMMFgCgAzRnRACCiCAxIiAI2CA+7JgdJuLGsZukcCtmwBnP+Aew0PMOoAABAAAYQABAAAIAADCAAAAAAAAAAA==

> <PUBCHEM_IUPAC_OPENEYE_NAME>
17-methoxy-5,7-dioxa-13-azoniapentacyclo[11.8.0.02,10.04,8.015,20]henicosa-1(13),2,4(8),9,14,16,18,20-octaen-16-ol

> <PUBCHEM_IUPAC_CAS_NAME>
17-methoxy-5,7-dioxa-13-azoniapentacyclo[11.8.0.02,10.04,8.015,20]heneicosa-1(13),2,4(8),9,14,16,18,20-octaen-16-ol

> <PUBCHEM_IUPAC_NAME_MARKUP>
17-methoxy-5,7-dioxa-13-azoniapentacyclo[11.8.0.0<SUP>2,10</SUP>.0<SUP>4,8</SUP>.0<SUP>15,20</SUP>]henicosa-1(13),2,4(8),9,14,16,18,20-octaen-16-ol

> <PUBCHEM_IUPAC_NAME>
17-methoxy-5,7-dioxa-13-azoniapentacyclo[11.8.0.02,10.04,8.015,20]henicosa-1(13),2,4(8),9,14,16,18,20-octaen-16-ol

> <PUBCHEM_IUPAC_SYSTEMATIC_NAME>
17-methoxy-5,7-dioxa-13-azoniapentacyclo[11.8.0.02,10.04,8.015,20]henicosa-1(13),2,4(8),9,14,16,18,20-octaen-16-ol

> <PUBCHEM_IUPAC_TRADITIONAL_NAME>
17-methoxy-5,7-dioxa-13-azoniapentacyclo[11.8.0.02,10.04,8.015,20]heneicosa-1(13),2,4(8),9,14,16,18,20-octaen-16-ol

> <PUBCHEM_IUPAC_INCHI>
InChI=1S/C19H15NO4/c1-22-16-3-2-11-6-15-13-8-18-17(23-10-24-18)7-12(13)4-5-20(15)9-14(11)19(16)21/h2-3,6-9H,4-5,10H2,1H3/p+1

> <PUBCHEM_IUPAC_INCHIKEY>
GLYPKDKODVRYGP-UHFFFAOYSA-O

> <PUBCHEM_XLOGP3_AA>
3.3

> <PUBCHEM_EXACT_MASS>
322.10793299

> <PUBCHEM_MOLECULAR_FORMULA>
C19H16NO4+

> <PUBCHEM_MOLECULAR_WEIGHT>
322.3

> <PUBCHEM_OPENEYE_CAN_SMILES>
COC1=C(C2=C[N+]3=C(C=C2C=C1)C4=CC5=C(C=C4CC3)OCO5)O

> <PUBCHEM_OPENEYE_ISO_SMILES>
COC1=C(C2=C[N+]3=C(C=C2C=C1)C4=CC5=C(C=C4CC3)OCO5)O

> <PUBCHEM_CACTVS_TPSA>
51.8

> <PUBCHEM_MONOISOTOPIC_WEIGHT>
322.10793299

> <PUBCHEM_TOTAL_CHARGE>
1

> <PUBCHEM_HEAVY_ATOM_COUNT>
24

> <PUBCHEM_ATOM_DEF_STEREO_COUNT>
0

> <PUBCHEM_ATOM_UDEF_STEREO_COUNT>
0

> <PUBCHEM_BOND_DEF_STEREO_COUNT>
0

> <PUBCHEM_BOND_UDEF_STEREO_COUNT>
0

> <PUBCHEM_ISOTOPIC_ATOM_COUNT>
0

> <PUBCHEM_COMPONENT_COUNT>
1

> <PUBCHEM_CACTVS_TAUTO_COUNT>
3

> <PUBCHEM_COORDINATE_TYPE>
1
5
255

> <PUBCHEM_BONDANNOTATIONS>
10  16  8
11  13  8
12  14  8
13  14  8
13  19  8
14  20  8
15  17  8
16  18  8
17  18  8
19  21  8
20  23  8
21  23  8
5  11  8
5  8  8
8  12  8
9  10  8
9  15  8

$$$$
145994872
  -OEChem-10012202202D

 42 45  0     0  0  0  0  0  0999 V2000
    4.2653    0.0000    0.0000 Cl  0  0  0  0  0  0  0  0  0  0  0  0
    9.3629    4.1398    0.0000 O   0  0  0  0  0  0  0  0  0  0  0  0
    7.9110    3.3016    0.0000 O   0  0  0  0  0  0  0  0  0  0  0  0
    3.2255    8.9608    0.0000 O   0  0  0  0  0  0  0  0  0  0  0  0
    1.4061    7.9290    0.0000 O   0  0  0  0  0  0  0  0  0  0  0  0
    5.9451    7.3832    0.0000 N   0  3  0  0  0  0  0  0  0  0  0  0
    6.8111    7.8832    0.0000 C   0  0  0  0  0  0  0  0  0  0  0  0
    7.6772    7.3832    0.0000 C   0  0  0  0  0  0  0  0  0  0  0  0
    5.9451    6.3832    0.0000 C   0  0  0  0  0  0  0  0  0  0  0  0
    7.6772    6.3832    0.0000 C   0  0  0  0  0  0  0  0  0  0  0  0
    6.8111    5.8832    0.0000 C   0  0  0  0  0  0  0  0  0  0  0  0
    5.0512    7.9178    0.0000 C   0  0  0  0  0  0  0  0  0  0  0  0
    5.0512    5.8485    0.0000 C   0  0  0  0  0  0  0  0  0  0  0  0
    4.1451    7.4040    0.0000 C   0  0  0  0  0  0  0  0  0  0  0  0
    4.1451    6.3623    0.0000 C   0  0  0  0  0  0  0  0  0  0  0  0
    8.5872    5.8763    0.0000 C   0  0  0  0  0  0  0  0  0  0  0  0
    6.7951    4.8416    0.0000 C   0  0  0  0  0  0  0  0  0  0  0  0
    8.5952    4.8347    0.0000 C   0  0  0  0  0  0  0  0  0  0  0  0
    7.6931    4.3139    0.0000 C   0  0  0  0  0  0  0  0  0  0  0  0
    3.2140    7.9609    0.0000 C   0  0  0  0  0  0  0  0  0  0  0  0
    3.2140    5.8054    0.0000 C   0  0  0  0  0  0  0  0  0  0  0  0
    2.2702    7.4256    0.0000 C   0  0  0  0  0  0  0  0  0  0  0  0
    8.9409    3.1943    0.0000 C   0  0  0  0  0  0  0  0  0  0  0  0
    2.2702    6.3406    0.0000 C   0  0  0  0  0  0  0  0  0  0  0  0
    0.5381    7.4323    0.0000 C   0  0  0  0  0  0  0  0  0  0  0  0
    7.2097    8.3581    0.0000 H   0  0  0  0  0  0  0  0  0  0  0  0
    6.4126    8.3581    0.0000 H   0  0  0  0  0  0  0  0  0  0  0  0
    8.2878    7.2755    0.0000 H   0  0  0  0  0  0  0  0  0  0  0  0
    7.8892    7.9658    0.0000 H   0  0  0  0  0  0  0  0  0  0  0  0
    5.0584    8.5378    0.0000 H   0  0  0  0  0  0  0  0  0  0  0  0
    5.0583    5.2285    0.0000 H   0  0  0  0  0  0  0  0  0  0  0  0
    9.1205    6.1925    0.0000 H   0  0  0  0  0  0  0  0  0  0  0  0
    6.2546    4.5379    0.0000 H   0  0  0  0  0  0  0  0  0  0  0  0
    3.2211    5.1854    0.0000 H   0  0  0  0  0  0  0  0  0  0  0  0
    8.8122    2.5878    0.0000 H   0  0  0  0  0  0  0  0  0  0  0  0
    9.5305    3.0025    0.0000 H   0  0  0  0  0  0  0  0  0  0  0  0
    1.7344    6.0286    0.0000 H   0  0  0  0  0  0  0  0  0  0  0  0
    2.6922    9.2770    0.0000 H   0  0  0  0  0  0  0  0  0  0  0  0
    0.2302    7.9704    0.0000 H   0  0  0  0  0  0  0  0  0  0  0  0
    0.0000    7.1244    0.0000 H   0  0  0  0  0  0  0  0  0  0  0  0
    0.8461    6.8942    0.0000 H   0  0  0  0  0  0  0  0  0  0  0  0
    5.2653    0.0000    0.0000 H   0  0  0  0  0  0  0  0  0  0  0  0
  1 42  1  0  0  0  0
  2 18  1  0  0  0  0
  2 23  1  0  0  0  0
  3 19  1  0  0  0  0
  3 23  1  0  0  0  0
  4 20  1  0  0  0  0
  4 38  1  0  0  0  0
  5 22  1  0  0  0  0
  5 25  1  0  0  0  0
  6  7  1  0  0  0  0
  6  9  2  0  0  0  0
  6 12  1  0  0  0  0
  7  8  1  0  0  0  0
  7 26  1  0  0  0  0
  7 27  1  0  0  0  0
  8 10  1  0  0  0  0
  8 28  1  0  0  0  0
  8 29  1  0  0  0  0
  9 11  1  0  0  0  0
  9 13  1  0  0  0  0
 10 11  1  0  0  0  0
 10 16  2  0  0  0  0
 11 17  2  0  0  0  0
 12 14  2  0  0  0  0
 12 30  1  0  0  0  0
 13 15  2  0  0  0  0
 13 31  1  0  0  0  0
 14 15  1  0  0  0  0
 14 20  1  0  0  0  0
 15 21  1  0  0  0  0
 16 18  1  0  0  0  0
 16 32  1  0  0  0  0
 17 19  1  0  0  0  0
 17 33  1  0  0  0  0
 18 19  2  0  0  0  0
 20 22  2  0  0  0  0
 21 24  2  0  0  0  0
 21 34  1  0  0  0  0
 22 24  1  0  0  0  0
 23 35  1  0  0  0  0
 23 36  1  0  0  0  0
 24 37  1  0  0  0  0
 25 39  1  0  0  0  0
 25 40  1  0  0  0  0
 25 41  1  0  0  0  0
M  CHG  1   6   1
M  END
> <PUBCHEM_COMPOUND_CID>
145994872

> <PUBCHEM_COMPOUND_CANONICALIZED>
1

> <PUBCHEM_CACTVS_COMPLEXITY>
474

> <PUBCHEM_CACTVS_HBOND_ACCEPTOR>
4

> <PUBCHEM_CACTVS_HBOND_DONOR>
2

> <PUBCHEM_CACTVS_ROTATABLE_BOND>
1

> <PUBCHEM_CACTVS_SUBSKEYS>
AAADceB6OAAEAAAAAAAAAAAAAAAAASAAAAA8eIEAAAAAAEix9AAAHgAACAAADAzBngc+jtMMFgCgAzRnRACCiCAxIiAI2CA+7JgdJuLGsZukcCtmwBnP+Aew0PMOoAABAAAYQABAAAIAADCAAAAAAAAAAA==

> <PUBCHEM_IUPAC_OPENEYE_NAME>
17-methoxy-5,7-dioxa-13-azoniapentacyclo[11.8.0.02,10.04,8.015,20]henicosa-1(13),2,4(8),9,14,16,18,20-octaen-16-ol;hydrochloride

> <PUBCHEM_IUPAC_CAS_NAME>
17-methoxy-5,7-dioxa-13-azoniapentacyclo[11.8.0.02,10.04,8.015,20]heneicosa-1(13),2,4(8),9,14,16,18,20-octaen-16-ol;hydrochloride

> <PUBCHEM_IUPAC_NAME_MARKUP>
17-methoxy-5,7-dioxa-13-azoniapentacyclo[11.8.0.0<SUP>2,10</SUP>.0<SUP>4,8</SUP>.0<SUP>15,20</SUP>]henicosa-1(13),2,4(8),9,14,16,18,20-octaen-16-ol;hydrochloride

> <PUBCHEM_IUPAC_NAME>
17-methoxy-5,7-dioxa-13-azoniapentacyclo[11.8.0.02,10.04,8.015,20]henicosa-1(13),2,4(8),9,14,16,18,20-octaen-16-ol;hydrochloride

> <PUBCHEM_IUPAC_SYSTEMATIC_NAME>
17-methoxy-5,7-dioxa-13-azoniapentacyclo[11.8.0.02,10.04,8.015,20]henicosa-1(13),2,4(8),9,14,16,18,20-octaen-16-ol;hydrochloride

> <PUBCHEM_IUPAC_TRADITIONAL_NAME>
17-methoxy-5,7-dioxa-13-azoniapentacyclo[11.8.0.02,10.04,8.015,20]heneicosa-1(13),2,4(8),9,14,16,18,20-octaen-16-ol;hydrochloride

> <PUBCHEM_IUPAC_INCHI>
InChI=1S/C19H15NO4.ClH/c1-22-16-3-2-11-6-15-13-8-18-17(23-10-24-18)7-12(13)4-5-20(15)9-14(11)19(16)21;/h2-3,6-9H,4-5,10H2,1H3;1H/p+1

> <PUBCHEM_IUPAC_INCHIKEY>
GYFSYEVKFOOLFZ-UHFFFAOYSA-O

> <PUBCHEM_EXACT_MASS>
358.0846107

> <PUBCHEM_MOLECULAR_FORMULA>
C19H17ClNO4+

> <PUBCHEM_MOLECULAR_WEIGHT>
358.8

> <PUBCHEM_OPENEYE_CAN_SMILES>
COC1=C(C2=C[N+]3=C(C=C2C=C1)C4=CC5=C(C=C4CC3)OCO5)O.Cl

> <PUBCHEM_OPENEYE_ISO_SMILES>
COC1=C(C2=C[N+]3=C(C=C2C=C1)C4=CC5=C(C=C4CC3)OCO5)O.Cl

> <PUBCHEM_CACTVS_TPSA>
51.8

> <PUBCHEM_MONOISOTOPIC_WEIGHT>
358.0846107

> <PUBCHEM_TOTAL_CHARGE>
1

> <PUBCHEM_HEAVY_ATOM_COUNT>
25

> <PUBCHEM_ATOM_DEF_STEREO_COUNT>
0

> <PUBCHEM_ATOM_UDEF_STEREO_COUNT>
0

> <PUBCHEM_BOND_DEF_STEREO_COUNT>
0

> <PUBCHEM_BOND_UDEF_STEREO_COUNT>
0

> <PUBCHEM_ISOTOPIC_ATOM_COUNT>
0

> <PUBCHEM_COMPONENT_COUNT>
2

> <PUBCHEM_CACTVS_TAUTO_COUNT>
-1

> <PUBCHEM_COORDINATE_TYPE>
1
5
255

> <PUBCHEM_BONDANNOTATIONS>
10  11  8
10  16  8
11  17  8
12  14  8
13  15  8
14  15  8
14  20  8
15  21  8
16  18  8
17  19  8
18  19  8
20  22  8
21  24  8
22  24  8
6  12  8
6  9  8
9  13  8

$$$$
