73057
  -OEChem-10012202192D

 59 61  0     1  0  0  0  0  0999 V2000
    4.8576   -1.6216    0.0000 O   0  0  0  0  0  0  0  0  0  0  0  0
    5.4506   -1.8672    0.0000 O   0  0  0  0  0  0  0  0  0  0  0  0
    2.3791    0.6016    0.0000 O   0  0  0  0  0  0  0  0  0  0  0  0
    3.1630   -1.2908    0.0000 O   0  0  0  0  0  0  0  0  0  0  0  0
    8.7752   -2.0478    0.0000 O   0  0  0  0  0  0  0  0  0  0  0  0
    6.8828   -2.8316    0.0000 O   0  0  0  0  0  0  0  0  0  0  0  0
    6.3476    2.4434    0.0000 C   0  0  1  0  0  0  0  0  0  0  0  0
    7.2714    2.0607    0.0000 C   0  0  2  0  0  0  0  0  0  0  0  0
    5.4237    2.0607    0.0000 C   0  0  0  0  0  0  0  0  0  0  0  0
    7.6541    1.1368    0.0000 C   0  0  0  0  0  0  0  0  0  0  0  0
    5.0410    1.1368    0.0000 C   0  0  0  0  0  0  0  0  0  0  0  0
    7.2714    0.2130    0.0000 C   0  0  0  0  0  0  0  0  0  0  0  0
    6.3476    3.4434    0.0000 C   0  0  0  0  0  0  0  0  0  0  0  0
    7.9786    2.7678    0.0000 C   0  0  0  0  0  0  0  0  0  0  0  0
    5.4237    0.2130    0.0000 C   0  0  0  0  0  0  0  0  0  0  0  0
    6.3476   -0.1697    0.0000 C   0  0  0  0  0  0  0  0  0  0  0  0
    4.0105    1.2887    0.0000 C   0  0  0  0  0  0  0  0  0  0  0  0
    8.1075   -0.4083    0.0000 C   0  0  0  0  0  0  0  0  0  0  0  0
    4.8024   -0.6231    0.0000 C   0  0  0  0  0  0  0  0  0  0  0  0
    6.1957   -1.2002    0.0000 C   0  0  0  0  0  0  0  0  0  0  0  0
    3.3700    0.4673    0.0000 C   0  0  0  0  0  0  0  0  0  0  0  0
    3.7687   -0.4951    0.0000 C   0  0  0  0  0  0  0  0  0  0  0  0
    7.9795   -1.4420    0.0000 C   0  0  0  0  0  0  0  0  0  0  0  0
    7.0172   -1.8407    0.0000 C   0  0  0  0  0  0  0  0  0  0  0  0
    4.0205   -2.1686    0.0000 C   0  0  0  0  0  0  0  0  0  0  0  0
    2.0000    1.5269    0.0000 C   0  0  0  0  0  0  0  0  0  0  0  0
    2.1710   -1.1641    0.0000 C   0  0  0  0  0  0  0  0  0  0  0  0
    9.6976   -1.6615    0.0000 C   0  0  0  0  0  0  0  0  0  0  0  0
    7.6738   -3.4434    0.0000 C   0  0  0  0  0  0  0  0  0  0  0  0
    6.8631    2.7879    0.0000 H   0  0  0  0  0  0  0  0  0  0  0  0
    7.8795    1.9398    0.0000 H   0  0  0  0  0  0  0  0  0  0  0  0
    5.3428    2.6754    0.0000 H   0  0  0  0  0  0  0  0  0  0  0  0
    4.8090    2.1417    0.0000 H   0  0  0  0  0  0  0  0  0  0  0  0
    8.1460    0.7594    0.0000 H   0  0  0  0  0  0  0  0  0  0  0  0
    8.1460    1.5143    0.0000 H   0  0  0  0  0  0  0  0  0  0  0  0
    6.9676    3.4434    0.0000 H   0  0  0  0  0  0  0  0  0  0  0  0
    6.3476    4.0634    0.0000 H   0  0  0  0  0  0  0  0  0  0  0  0
    5.7276    3.4434    0.0000 H   0  0  0  0  0  0  0  0  0  0  0  0
    8.4170    2.3294    0.0000 H   0  0  0  0  0  0  0  0  0  0  0  0
    8.4170    3.2062    0.0000 H   0  0  0  0  0  0  0  0  0  0  0  0
    7.5402    3.2062    0.0000 H   0  0  0  0  0  0  0  0  0  0  0  0
    3.7799    1.8642    0.0000 H   0  0  0  0  0  0  0  0  0  0  0  0
    8.6775   -0.1644    0.0000 H   0  0  0  0  0  0  0  0  0  0  0  0
    5.5778   -2.4740    0.0000 H   0  0  0  0  0  0  0  0  0  0  0  0
    3.6813   -1.6496    0.0000 H   0  0  0  0  0  0  0  0  0  0  0  0
    3.5015   -2.5078    0.0000 H   0  0  0  0  0  0  0  0  0  0  0  0
    4.3597   -2.6876    0.0000 H   0  0  0  0  0  0  0  0  0  0  0  0
    2.5737    1.7620    0.0000 H   0  0  0  0  0  0  0  0  0  0  0  0
    1.7650    2.1007    0.0000 H   0  0  0  0  0  0  0  0  0  0  0  0
    1.4263    1.2919    0.0000 H   0  0  0  0  0  0  0  0  0  0  0  0
    2.2496   -0.5491    0.0000 H   0  0  0  0  0  0  0  0  0  0  0  0
    1.5560   -1.0855    0.0000 H   0  0  0  0  0  0  0  0  0  0  0  0
    2.0925   -1.7791    0.0000 H   0  0  0  0  0  0  0  0  0  0  0  0
    9.9371   -2.2334    0.0000 H   0  0  0  0  0  0  0  0  0  0  0  0
   10.2695   -1.4220    0.0000 H   0  0  0  0  0  0  0  0  0  0  0  0
    9.4581   -1.0896    0.0000 H   0  0  0  0  0  0  0  0  0  0  0  0
    7.2945   -3.9338    0.0000 H   0  0  0  0  0  0  0  0  0  0  0  0
    8.1642   -3.8227    0.0000 H   0  0  0  0  0  0  0  0  0  0  0  0
    8.0532   -2.9530    0.0000 H   0  0  0  0  0  0  0  0  0  0  0  0
  1 19  1  0  0  0  0
  1 25  1  0  0  0  0
  2 20  1  0  0  0  0
  2 44  1  0  0  0  0
  3 21  1  0  0  0  0
  3 26  1  0  0  0  0
  4 22  1  0  0  0  0
  4 27  1  0  0  0  0
  5 23  1  0  0  0  0
  5 28  1  0  0  0  0
  6 24  1  0  0  0  0
  6 29  1  0  0  0  0
  7  8  1  0  0  0  0
  7  9  1  0  0  0  0
  7 13  1  1  0  0  0
  7 30  1  0  0  0  0
  8 10  1  0  0  0  0
  8 14  1  1  0  0  0
  8 31  1  0  0  0  0
  9 11  1  0  0  0  0
  9 32  1  0  0  0  0
  9 33  1  0  0  0  0
 10 12  1  0  0  0  0
 10 34  1  0  0  0  0
 10 35  1  0  0  0  0
 11 15  1  0  0  0  0
 11 17  2  0  0  0  0
 12 16  1  0  0  0  0
 12 18  2  0  0  0  0
 13 36  1  0  0  0  0
 13 37  1  0  0  0  0
 13 38  1  0  0  0  0
 14 39  1  0  0  0  0
 14 40  1  0  0  0  0
 14 41  1  0  0  0  0
 15 16  1  0  0  0  0
 15 19  2  0  0  0  0
 16 20  2  0  0  0  0
 17 21  1  0  0  0  0
 17 42  1  0  0  0  0
 18 23  1  0  0  0  0
 18 43  1  0  0  0  0
 19 22  1  0  0  0  0
 20 24  1  0  0  0  0
 21 22  2  0  0  0  0
 23 24  2  0  0  0  0
 25 45  1  0  0  0  0
 25 46  1  0  0  0  0
 25 47  1  0  0  0  0
 26 48  1  0  0  0  0
 26 49  1  0  0  0  0
 26 50  1  0  0  0  0
 27 51  1  0  0  0  0
 27 52  1  0  0  0  0
 27 53  1  0  0  0  0
 28 54  1  0  0  0  0
 28 55  1  0  0  0  0
 28 56  1  0  0  0  0
 29 57  1  0  0  0  0
 29 58  1  0  0  0  0
 29 59  1  0  0  0  0
M  END
> <PUBCHEM_COMPOUND_CID>
73057

> <PUBCHEM_COMPOUND_CANONICALIZED>
1

> <PUBCHEM_CACTVS_COMPLEXITY>
516

> <PUBCHEM_CACTVS_HBOND_ACCEPTOR>
6

> <PUBCHEM_CACTVS_HBOND_DONOR>
1

> <PUBCHEM_CACTVS_ROTATABLE_BOND>
5

> <PUBCHEM_CACTVS_SUBSKEYS>
AAADceB4OAAAAAAAAAAAAAAAAAAAAAAAAAAwYAAAAAAYAAABQAAAGgAACAAADQSAmAIyBoAABgCAAiBCAAACCAAgIAAAiAAGiIgNJyKGMRqAcCMlwBULuAfA4PwOoAABCAAYQABAAAIQADCAAAAAAAAAAA==

> <PUBCHEM_IUPAC_OPENEYE_NAME>
(9S,10R)-4,5,14,15,16-pentamethoxy-9,10-dimethyl-tricyclo[10.4.0.02,7]hexadeca-1(16),2,4,6,12,14-hexaen-3-ol

> <PUBCHEM_IUPAC_CAS_NAME>
(9S,10R)-4,5,14,15,16-pentamethoxy-9,10-dimethyl-3-tricyclo[10.4.0.02,7]hexadeca-1(16),2,4,6,12,14-hexaenol

> <PUBCHEM_IUPAC_NAME_MARKUP>
(9<I>S</I>,10<I>R</I>)-4,5,14,15,16-pentamethoxy-9,10-dimethyltricyclo[10.4.0.0<SUP>2,7</SUP>]hexadeca-1(16),2,4,6,12,14-hexaen-3-ol

> <PUBCHEM_IUPAC_NAME>
(9S,10R)-4,5,14,15,16-pentamethoxy-9,10-dimethyltricyclo[10.4.0.02,7]hexadeca-1(16),2,4,6,12,14-hexaen-3-ol

> <PUBCHEM_IUPAC_SYSTEMATIC_NAME>
(9S,10R)-4,5,14,15,16-pentamethoxy-9,10-dimethyl-tricyclo[10.4.0.02,7]hexadeca-1(16),2,4,6,12,14-hexaen-3-ol

> <PUBCHEM_IUPAC_TRADITIONAL_NAME>
(9S,10R)-4,5,14,15,16-pentamethoxy-9,10-dimethyl-tricyclo[10.4.0.02,7]hexadeca-1(16),2,4,6,12,14-hexaen-3-ol

> <PUBCHEM_IUPAC_INCHI>
InChI=1S/C23H30O6/c1-12-8-14-10-16(25-3)21(27-5)20(24)18(14)19-15(9-13(12)2)11-17(26-4)22(28-6)23(19)29-7/h10-13,24H,8-9H2,1-7H3/t12-,13+/m0/s1

> <PUBCHEM_IUPAC_INCHIKEY>
FYSHYFPJBONYCQ-QWHCGFSZSA-N

> <PUBCHEM_XLOGP3_AA>
4.9

> <PUBCHEM_EXACT_MASS>
402.20423867

> <PUBCHEM_MOLECULAR_FORMULA>
C23H30O6

> <PUBCHEM_MOLECULAR_WEIGHT>
402.5

> <PUBCHEM_OPENEYE_CAN_SMILES>
CC1CC2=CC(=C(C(=C2C3=C(C(=C(C=C3CC1C)OC)OC)OC)O)OC)OC

> <PUBCHEM_OPENEYE_ISO_SMILES>
C[C@H]1CC2=CC(=C(C(=C2C3=C(C(=C(C=C3C[C@H]1C)OC)OC)OC)O)OC)OC

> <PUBCHEM_CACTVS_TPSA>
66.4

> <PUBCHEM_MONOISOTOPIC_WEIGHT>
402.20423867

> <PUBCHEM_TOTAL_CHARGE>
0

> <PUBCHEM_HEAVY_ATOM_COUNT>
29

> <PUBCHEM_ATOM_DEF_STEREO_COUNT>
2

> <PUBCHEM_ATOM_UDEF_STEREO_COUNT>
0

> <PUBCHEM_BOND_DEF_STEREO_COUNT>
0

> <PUBCHEM_BOND_UDEF_STEREO_COUNT>
0

> <PUBCHEM_ISOTOPIC_ATOM_COUNT>
0

> <PUBCHEM_COMPONENT_COUNT>
1

> <PUBCHEM_CACTVS_TAUTO_COUNT>
9

> <PUBCHEM_COORDINATE_TYPE>
1
5
255

> <PUBCHEM_BONDANNOTATIONS>
11  15  8
11  17  8
12  16  8
12  18  8
15  19  8
16  20  8
17  21  8
18  23  8
19  22  8
20  24  8
21  22  8
23  24  8
7  13  5
8  14  5

$$$$
433451
  -OEChem-10012202192D

 59 61  0     1  0  0  0  0  0999 V2000
    4.8576   -1.6216    0.0000 O   0  0  0  0  0  0  0  0  0  0  0  0
    5.4506   -1.8672    0.0000 O   0  0  0  0  0  0  0  0  0  0  0  0
    2.3791    0.6016    0.0000 O   0  0  0  0  0  0  0  0  0  0  0  0
    3.1630   -1.2908    0.0000 O   0  0  0  0  0  0  0  0  0  0  0  0
    8.7752   -2.0478    0.0000 O   0  0  0  0  0  0  0  0  0  0  0  0
    6.8828   -2.8316    0.0000 O   0  0  0  0  0  0  0  0  0  0  0  0
    6.3476    2.4434    0.0000 C   0  0  3  0  0  0  0  0  0  0  0  0
    7.2714    2.0607    0.0000 C   0  0  3  0  0  0  0  0  0  0  0  0
    5.4237    2.0607    0.0000 C   0  0  0  0  0  0  0  0  0  0  0  0
    7.6541    1.1368    0.0000 C   0  0  0  0  0  0  0  0  0  0  0  0
    5.0410    1.1368    0.0000 C   0  0  0  0  0  0  0  0  0  0  0  0
    7.2714    0.2130    0.0000 C   0  0  0  0  0  0  0  0  0  0  0  0
    6.3476    3.4434    0.0000 C   0  0  0  0  0  0  0  0  0  0  0  0
    7.9786    2.7678    0.0000 C   0  0  0  0  0  0  0  0  0  0  0  0
    5.4237    0.2130    0.0000 C   0  0  0  0  0  0  0  0  0  0  0  0
    6.3476   -0.1697    0.0000 C   0  0  0  0  0  0  0  0  0  0  0  0
    4.0105    1.2887    0.0000 C   0  0  0  0  0  0  0  0  0  0  0  0
    8.1075   -0.4083    0.0000 C   0  0  0  0  0  0  0  0  0  0  0  0
    4.8024   -0.6231    0.0000 C   0  0  0  0  0  0  0  0  0  0  0  0
    6.1957   -1.2002    0.0000 C   0  0  0  0  0  0  0  0  0  0  0  0
    3.3700    0.4673    0.0000 C   0  0  0  0  0  0  0  0  0  0  0  0
    3.7687   -0.4951    0.0000 C   0  0  0  0  0  0  0  0  0  0  0  0
    7.9795   -1.4420    0.0000 C   0  0  0  0  0  0  0  0  0  0  0  0
    7.0172   -1.8407    0.0000 C   0  0  0  0  0  0  0  0  0  0  0  0
    4.0205   -2.1686    0.0000 C   0  0  0  0  0  0  0  0  0  0  0  0
    2.0000    1.5269    0.0000 C   0  0  0  0  0  0  0  0  0  0  0  0
    2.1710   -1.1641    0.0000 C   0  0  0  0  0  0  0  0  0  0  0  0
    9.6976   -1.6615    0.0000 C   0  0  0  0  0  0  0  0  0  0  0  0
    7.6738   -3.4434    0.0000 C   0  0  0  0  0  0  0  0  0  0  0  0
    6.8631    2.7879    0.0000 H   0  0  0  0  0  0  0  0  0  0  0  0
    7.8795    1.9398    0.0000 H   0  0  0  0  0  0  0  0  0  0  0  0
    5.3428    2.6754    0.0000 H   0  0  0  0  0  0  0  0  0  0  0  0
    4.8090    2.1417    0.0000 H   0  0  0  0  0  0  0  0  0  0  0  0
    8.1460    0.7594    0.0000 H   0  0  0  0  0  0  0  0  0  0  0  0
    8.1460    1.5143    0.0000 H   0  0  0  0  0  0  0  0  0  0  0  0
    6.9676    3.4434    0.0000 H   0  0  0  0  0  0  0  0  0  0  0  0
    6.3476    4.0634    0.0000 H   0  0  0  0  0  0  0  0  0  0  0  0
    5.7276    3.4434    0.0000 H   0  0  0  0  0  0  0  0  0  0  0  0
    8.4170    2.3294    0.0000 H   0  0  0  0  0  0  0  0  0  0  0  0
    8.4170    3.2062    0.0000 H   0  0  0  0  0  0  0  0  0  0  0  0
    7.5402    3.2062    0.0000 H   0  0  0  0  0  0  0  0  0  0  0  0
    3.7799    1.8642    0.0000 H   0  0  0  0  0  0  0  0  0  0  0  0
    8.6775   -0.1644    0.0000 H   0  0  0  0  0  0  0  0  0  0  0  0
    5.5778   -2.4740    0.0000 H   0  0  0  0  0  0  0  0  0  0  0  0
    3.6813   -1.6496    0.0000 H   0  0  0  0  0  0  0  0  0  0  0  0
    3.5015   -2.5078    0.0000 H   0  0  0  0  0  0  0  0  0  0  0  0
    4.3597   -2.6876    0.0000 H   0  0  0  0  0  0  0  0  0  0  0  0
    2.5737    1.7620    0.0000 H   0  0  0  0  0  0  0  0  0  0  0  0
    1.7650    2.1007    0.0000 H   0  0  0  0  0  0  0  0  0  0  0  0
    1.4263    1.2919    0.0000 H   0  0  0  0  0  0  0  0  0  0  0  0
    2.2496   -0.5491    0.0000 H   0  0  0  0  0  0  0  0  0  0  0  0
    1.5560   -1.0855    0.0000 H   0  0  0  0  0  0  0  0  0  0  0  0
    2.0925   -1.7791    0.0000 H   0  0  0  0  0  0  0  0  0  0  0  0
    9.9371   -2.2334    0.0000 H   0  0  0  0  0  0  0  0  0  0  0  0
   10.2695   -1.4220    0.0000 H   0  0  0  0  0  0  0  0  0  0  0  0
    9.4581   -1.0896    0.0000 H   0  0  0  0  0  0  0  0  0  0  0  0
    7.2945   -3.9338    0.0000 H   0  0  0  0  0  0  0  0  0  0  0  0
    8.1642   -3.8227    0.0000 H   0  0  0  0  0  0  0  0  0  0  0  0
    8.0532   -2.9530    0.0000 H   0  0  0  0  0  0  0  0  0  0  0  0
  1 19  1  0  0  0  0
  1 25  1  0  0  0  0
  2 20  1  0  0  0  0
  2 44  1  0  0  0  0
  3 21  1  0  0  0  0
  3 26  1  0  0  0  0
  4 22  1  0  0  0  0
  4 27  1  0  0  0  0
  5 23  1  0  0  0  0
  5 28  1  0  0  0  0
  6 24  1  0  0  0  0
  6 29  1  0  0  0  0
  7  8  1  0  0  0  0
  7  9  1  0  0  0  0
  7 13  1  0  0  0  0
  7 30  1  0  0  0  0
  8 10  1  0  0  0  0
  8 14  1  0  0  0  0
  8 31  1  0  0  0  0
  9 11  1  0  0  0  0
  9 32  1  0  0  0  0
  9 33  1  0  0  0  0
 10 12  1  0  0  0  0
 10 34  1  0  0  0  0
 10 35  1  0  0  0  0
 11 15  1  0  0  0  0
 11 17  2  0  0  0  0
 12 16  1  0  0  0  0
 12 18  2  0  0  0  0
 13 36  1  0  0  0  0
 13 37  1  0  0  0  0
 13 38  1  0  0  0  0
 14 39  1  0  0  0  0
 14 40  1  0  0  0  0
 14 41  1  0  0  0  0
 15 16  1  0  0  0  0
 15 19  2  0  0  0  0
 16 20  2  0  0  0  0
 17 21  1  0  0  0  0
 17 42  1  0  0  0  0
 18 23  1  0  0  0  0
 18 43  1  0  0  0  0
 19 22  1  0  0  0  0
 20 24  1  0  0  0  0
 21 22  2  0  0  0  0
 23 24  2  0  0  0  0
 25 45  1  0  0  0  0
 25 46  1  0  0  0  0
 25 47  1  0  0  0  0
 26 48  1  0  0  0  0
 26 49  1  0  0  0  0
 26 50  1  0  0  0  0
 27 51  1  0  0  0  0
 27 52  1  0  0  0  0
 27 53  1  0  0  0  0
 28 54  1  0  0  0  0
 28 55  1  0  0  0  0
 28 56  1  0  0  0  0
 29 57  1  0  0  0  0
 29 58  1  0  0  0  0
 29 59  1  0  0  0  0
M  END
> <PUBCHEM_COMPOUND_CID>
433451

> <PUBCHEM_COMPOUND_CANONICALIZED>
1

> <PUBCHEM_CACTVS_COMPLEXITY>
516

> <PUBCHEM_CACTVS_HBOND_ACCEPTOR>
6

> <PUBCHEM_CACTVS_HBOND_DONOR>
1

> <PUBCHEM_CACTVS_ROTATABLE_BOND>
5

> <PUBCHEM_CACTVS_SUBSKEYS>
AAADceB4OAAAAAAAAAAAAAAAAAAAAAAAAAAwYAAAAAAYAAABQAAAGgAACAAADQSAmAIyBoAABgCAAiBCAAACCAAgIAAAiAAGiIgNJyKGMRqAcCMlwBULuAfA4PwOoAABCAAYQABAAAIQADCAAAAAAAAAAA==

> <PUBCHEM_IUPAC_OPENEYE_NAME>
4,5,14,15,16-pentamethoxy-9,10-dimethyl-tricyclo[10.4.0.02,7]hexadeca-1(16),2,4,6,12,14-hexaen-3-ol

> <PUBCHEM_IUPAC_CAS_NAME>
4,5,14,15,16-pentamethoxy-9,10-dimethyl-3-tricyclo[10.4.0.02,7]hexadeca-1(16),2,4,6,12,14-hexaenol

> <PUBCHEM_IUPAC_NAME_MARKUP>
4,5,14,15,16-pentamethoxy-9,10-dimethyltricyclo[10.4.0.0<SUP>2,7</SUP>]hexadeca-1(16),2,4,6,12,14-hexaen-3-ol

> <PUBCHEM_IUPAC_NAME>
4,5,14,15,16-pentamethoxy-9,10-dimethyltricyclo[10.4.0.02,7]hexadeca-1(16),2,4,6,12,14-hexaen-3-ol

> <PUBCHEM_IUPAC_SYSTEMATIC_NAME>
4,5,14,15,16-pentamethoxy-9,10-dimethyl-tricyclo[10.4.0.02,7]hexadeca-1(16),2,4,6,12,14-hexaen-3-ol

> <PUBCHEM_IUPAC_TRADITIONAL_NAME>
4,5,14,15,16-pentamethoxy-9,10-dimethyl-tricyclo[10.4.0.02,7]hexadeca-1(16),2,4,6,12,14-hexaen-3-ol

> <PUBCHEM_IUPAC_INCHI>
InChI=1S/C23H30O6/c1-12-8-14-10-16(25-3)21(27-5)20(24)18(14)19-15(9-13(12)2)11-17(26-4)22(28-6)23(19)29-7/h10-13,24H,8-9H2,1-7H3

> <PUBCHEM_IUPAC_INCHIKEY>
FYSHYFPJBONYCQ-UHFFFAOYSA-N

> <PUBCHEM_XLOGP3_AA>
4.9

> <PUBCHEM_EXACT_MASS>
402.20423867

> <PUBCHEM_MOLECULAR_FORMULA>
C23H30O6

> <PUBCHEM_MOLECULAR_WEIGHT>
402.5

> <PUBCHEM_OPENEYE_CAN_SMILES>
CC1CC2=CC(=C(C(=C2C3=C(C(=C(C=C3CC1C)OC)OC)OC)O)OC)OC

> <PUBCHEM_OPENEYE_ISO_SMILES>
CC1CC2=CC(=C(C(=C2C3=C(C(=C(C=C3CC1C)OC)OC)OC)O)OC)OC

> <PUBCHEM_CACTVS_TPSA>
66.4

> <PUBCHEM_MONOISOTOPIC_WEIGHT>
402.20423867

> <PUBCHEM_TOTAL_CHARGE>
0

> <PUBCHEM_HEAVY_ATOM_COUNT>
29

> <PUBCHEM_ATOM_DEF_STEREO_COUNT>
0

> <PUBCHEM_ATOM_UDEF_STEREO_COUNT>
2

> <PUBCHEM_BOND_DEF_STEREO_COUNT>
0

> <PUBCHEM_BOND_UDEF_STEREO_COUNT>
0

> <PUBCHEM_ISOTOPIC_ATOM_COUNT>
0

> <PUBCHEM_COMPONENT_COUNT>
1

> <PUBCHEM_CACTVS_TAUTO_COUNT>
9

> <PUBCHEM_COORDINATE_TYPE>
1
5
255

> <PUBCHEM_BONDANNOTATIONS>
11  15  8
11  17  8
12  16  8
12  18  8
15  19  8
16  20  8
17  21  8
18  23  8
19  22  8
20  24  8
21  22  8
23  24  8
7  13  3
8  14  3

$$$$
13844278
  -OEChem-10012202192D

 59 61  0     1  0  0  0  0  0999 V2000
    4.8576   -1.6216    0.0000 O   0  0  0  0  0  0  0  0  0  0  0  0
    5.4506   -1.8672    0.0000 O   0  0  0  0  0  0  0  0  0  0  0  0
    2.3791    0.6016    0.0000 O   0  0  0  0  0  0  0  0  0  0  0  0
    3.1630   -1.2908    0.0000 O   0  0  0  0  0  0  0  0  0  0  0  0
    8.7752   -2.0478    0.0000 O   0  0  0  0  0  0  0  0  0  0  0  0
    6.8828   -2.8316    0.0000 O   0  0  0  0  0  0  0  0  0  0  0  0
    6.3476    2.4434    0.0000 C   0  0  2  0  0  0  0  0  0  0  0  0
    7.2714    2.0607    0.0000 C   0  0  1  0  0  0  0  0  0  0  0  0
    5.4237    2.0607    0.0000 C   0  0  0  0  0  0  0  0  0  0  0  0
    7.6541    1.1368    0.0000 C   0  0  0  0  0  0  0  0  0  0  0  0
    5.0410    1.1368    0.0000 C   0  0  0  0  0  0  0  0  0  0  0  0
    7.2714    0.2130    0.0000 C   0  0  0  0  0  0  0  0  0  0  0  0
    6.3476    3.4434    0.0000 C   0  0  0  0  0  0  0  0  0  0  0  0
    7.9786    2.7678    0.0000 C   0  0  0  0  0  0  0  0  0  0  0  0
    5.4237    0.2130    0.0000 C   0  0  0  0  0  0  0  0  0  0  0  0
    6.3476   -0.1697    0.0000 C   0  0  0  0  0  0  0  0  0  0  0  0
    4.0105    1.2887    0.0000 C   0  0  0  0  0  0  0  0  0  0  0  0
    8.1075   -0.4083    0.0000 C   0  0  0  0  0  0  0  0  0  0  0  0
    4.8024   -0.6231    0.0000 C   0  0  0  0  0  0  0  0  0  0  0  0
    6.1957   -1.2002    0.0000 C   0  0  0  0  0  0  0  0  0  0  0  0
    3.3700    0.4673    0.0000 C   0  0  0  0  0  0  0  0  0  0  0  0
    3.7687   -0.4951    0.0000 C   0  0  0  0  0  0  0  0  0  0  0  0
    7.9795   -1.4420    0.0000 C   0  0  0  0  0  0  0  0  0  0  0  0
    7.0172   -1.8407    0.0000 C   0  0  0  0  0  0  0  0  0  0  0  0
    4.0205   -2.1686    0.0000 C   0  0  0  0  0  0  0  0  0  0  0  0
    2.0000    1.5269    0.0000 C   0  0  0  0  0  0  0  0  0  0  0  0
    2.1710   -1.1641    0.0000 C   0  0  0  0  0  0  0  0  0  0  0  0
    9.6976   -1.6615    0.0000 C   0  0  0  0  0  0  0  0  0  0  0  0
    7.6738   -3.4434    0.0000 C   0  0  0  0  0  0  0  0  0  0  0  0
    6.8631    2.7879    0.0000 H   0  0  0  0  0  0  0  0  0  0  0  0
    7.8795    1.9398    0.0000 H   0  0  0  0  0  0  0  0  0  0  0  0
    5.3428    2.6754    0.0000 H   0  0  0  0  0  0  0  0  0  0  0  0
    4.8090    2.1417    0.0000 H   0  0  0  0  0  0  0  0  0  0  0  0
    8.1460    0.7594    0.0000 H   0  0  0  0  0  0  0  0  0  0  0  0
    8.1460    1.5143    0.0000 H   0  0  0  0  0  0  0  0  0  0  0  0
    6.9676    3.4434    0.0000 H   0  0  0  0  0  0  0  0  0  0  0  0
    6.3476    4.0634    0.0000 H   0  0  0  0  0  0  0  0  0  0  0  0
    5.7276    3.4434    0.0000 H   0  0  0  0  0  0  0  0  0  0  0  0
    8.4170    2.3294    0.0000 H   0  0  0  0  0  0  0  0  0  0  0  0
    8.4170    3.2062    0.0000 H   0  0  0  0  0  0  0  0  0  0  0  0
    7.5402    3.2062    0.0000 H   0  0  0  0  0  0  0  0  0  0  0  0
    3.7799    1.8642    0.0000 H   0  0  0  0  0  0  0  0  0  0  0  0
    8.6775   -0.1644    0.0000 H   0  0  0  0  0  0  0  0  0  0  0  0
    5.5778   -2.4740    0.0000 H   0  0  0  0  0  0  0  0  0  0  0  0
    3.6813   -1.6496    0.0000 H   0  0  0  0  0  0  0  0  0  0  0  0
    3.5015   -2.5078    0.0000 H   0  0  0  0  0  0  0  0  0  0  0  0
    4.3597   -2.6876    0.0000 H   0  0  0  0  0  0  0  0  0  0  0  0
    2.5737    1.7620    0.0000 H   0  0  0  0  0  0  0  0  0  0  0  0
    1.7650    2.1007    0.0000 H   0  0  0  0  0  0  0  0  0  0  0  0
    1.4263    1.2919    0.0000 H   0  0  0  0  0  0  0  0  0  0  0  0
    2.2496   -0.5491    0.0000 H   0  0  0  0  0  0  0  0  0  0  0  0
    1.5560   -1.0855    0.0000 H   0  0  0  0  0  0  0  0  0  0  0  0
    2.0925   -1.7791    0.0000 H   0  0  0  0  0  0  0  0  0  0  0  0
    9.9371   -2.2334    0.0000 H   0  0  0  0  0  0  0  0  0  0  0  0
   10.2695   -1.4220    0.0000 H   0  0  0  0  0  0  0  0  0  0  0  0
    9.4581   -1.0896    0.0000 H   0  0  0  0  0  0  0  0  0  0  0  0
    7.2945   -3.9338    0.0000 H   0  0  0  0  0  0  0  0  0  0  0  0
    8.1642   -3.8227    0.0000 H   0  0  0  0  0  0  0  0  0  0  0  0
    8.0532   -2.9530    0.0000 H   0  0  0  0  0  0  0  0  0  0  0  0
  1 19  1  0  0  0  0
  1 25  1  0  0  0  0
  2 20  1  0  0  0  0
  2 44  1  0  0  0  0
  3 21  1  0  0  0  0
  3 26  1  0  0  0  0
  4 22  1  0  0  0  0
  4 27  1  0  0  0  0
  5 23  1  0  0  0  0
  5 28  1  0  0  0  0
  6 24  1  0  0  0  0
  6 29  1  0  0  0  0
  7  8  1  0  0  0  0
  7  9  1  0  0  0  0
  7 13  1  6  0  0  0
  7 30  1  0  0  0  0
  8 10  1  0  0  0  0
  8 14  1  6  0  0  0
  8 31  1  0  0  0  0
  9 11  1  0  0  0  0
  9 32  1  0  0  0  0
  9 33  1  0  0  0  0
 10 12  1  0  0  0  0
 10 34  1  0  0  0  0
 10 35  1  0  0  0  0
 11 15  1  0  0  0  0
 11 17  2  0  0  0  0
 12 16  1  0  0  0  0
 12 18  2  0  0  0  0
 13 36  1  0  0  0  0
 13 37  1  0  0  0  0
 13 38  1  0  0  0  0
 14 39  1  0  0  0  0
 14 40  1  0  0  0  0
 14 41  1  0  0  0  0
 15 16  1  0  0  0  0
 15 19  2  0  0  0  0
 16 20  2  0  0  0  0
 17 21  1  0  0  0  0
 17 42  1  0  0  0  0
 18 23  1  0  0  0  0
 18 43  1  0  0  0  0
 19 22  1  0  0  0  0
 20 24  1  0  0  0  0
 21 22  2  0  0  0  0
 23 24  2  0  0  0  0
 25 45  1  0  0  0  0
 25 46  1  0  0  0  0
 25 47  1  0  0  0  0
 26 48  1  0  0  0  0
 26 49  1  0  0  0  0
 26 50  1  0  0  0  0
 27 51  1  0  0  0  0
 27 52  1  0  0  0  0
 27 53  1  0  0  0  0
 28 54  1  0  0  0  0
 28 55  1  0  0  0  0
 28 56  1  0  0  0  0
 29 57  1  0  0  0  0
 29 58  1  0  0  0  0
 29 59  1  0  0  0  0
M  END
> <PUBCHEM_COMPOUND_CID>
13844278

> <PUBCHEM_COMPOUND_CANONICALIZED>
1

> <PUBCHEM_CACTVS_COMPLEXITY>
516

> <PUBCHEM_CACTVS_HBOND_ACCEPTOR>
6

> <PUBCHEM_CACTVS_HBOND_DONOR>
1

> <PUBCHEM_CACTVS_ROTATABLE_BOND>
5

> <PUBCHEM_CACTVS_SUBSKEYS>
AAADceB4OAAAAAAAAAAAAAAAAAAAAAAAAAAwYAAAAAAYAAABQAAAGgAACAAADQSAmAIyBoAABgCAAiBCAAACCAAgIAAAiAAGiIgNJyKGMRqAcCMlwBULuAfA4PwOoAABCAAYQABAAAIQADCAAAAAAAAAAA==

> <PUBCHEM_IUPAC_OPENEYE_NAME>
(9R,10S)-4,5,14,15,16-pentamethoxy-9,10-dimethyl-tricyclo[10.4.0.02,7]hexadeca-1(16),2,4,6,12,14-hexaen-3-ol

> <PUBCHEM_IUPAC_CAS_NAME>
(9R,10S)-4,5,14,15,16-pentamethoxy-9,10-dimethyl-3-tricyclo[10.4.0.02,7]hexadeca-1(16),2,4,6,12,14-hexaenol

> <PUBCHEM_IUPAC_NAME_MARKUP>
(9<I>R</I>,10<I>S</I>)-4,5,14,15,16-pentamethoxy-9,10-dimethyltricyclo[10.4.0.0<SUP>2,7</SUP>]hexadeca-1(16),2,4,6,12,14-hexaen-3-ol

> <PUBCHEM_IUPAC_NAME>
(9R,10S)-4,5,14,15,16-pentamethoxy-9,10-dimethyltricyclo[10.4.0.02,7]hexadeca-1(16),2,4,6,12,14-hexaen-3-ol

> <PUBCHEM_IUPAC_SYSTEMATIC_NAME>
(9R,10S)-4,5,14,15,16-pentamethoxy-9,10-dimethyl-tricyclo[10.4.0.02,7]hexadeca-1(16),2,4,6,12,14-hexaen-3-ol

> <PUBCHEM_IUPAC_TRADITIONAL_NAME>
(9R,10S)-4,5,14,15,16-pentamethoxy-9,10-dimethyl-tricyclo[10.4.0.02,7]hexadeca-1(16),2,4,6,12,14-hexaen-3-ol

> <PUBCHEM_IUPAC_INCHI>
InChI=1S/C23H30O6/c1-12-8-14-10-16(25-3)21(27-5)20(24)18(14)19-15(9-13(12)2)11-17(26-4)22(28-6)23(19)29-7/h10-13,24H,8-9H2,1-7H3/t12-,13+/m1/s1

> <PUBCHEM_IUPAC_INCHIKEY>
FYSHYFPJBONYCQ-OLZOCXBDSA-N

> <PUBCHEM_XLOGP3_AA>
4.9

> <PUBCHEM_EXACT_MASS>
402.20423867

> <PUBCHEM_MOLECULAR_FORMULA>
C23H30O6

> <PUBCHEM_MOLECULAR_WEIGHT>
402.5

> <PUBCHEM_OPENEYE_CAN_SMILES>
CC1CC2=CC(=C(C(=C2C3=C(C(=C(C=C3CC1C)OC)OC)OC)O)OC)OC

> <PUBCHEM_OPENEYE_ISO_SMILES>
C[C@@H]1CC2=CC(=C(C(=C2C3=C(C(=C(C=C3C[C@@H]1C)OC)OC)OC)O)OC)OC

> <PUBCHEM_CACTVS_TPSA>
66.4

> <PUBCHEM_MONOISOTOPIC_WEIGHT>
402.20423867

> <PUBCHEM_TOTAL_CHARGE>
0

> <PUBCHEM_HEAVY_ATOM_COUNT>
29

> <PUBCHEM_ATOM_DEF_STEREO_COUNT>
2

> <PUBCHEM_ATOM_UDEF_STEREO_COUNT>
0

> <PUBCHEM_BOND_DEF_STEREO_COUNT>
0

> <PUBCHEM_BOND_UDEF_STEREO_COUNT>
0

> <PUBCHEM_ISOTOPIC_ATOM_COUNT>
0

> <PUBCHEM_COMPONENT_COUNT>
1

> <PUBCHEM_CACTVS_TAUTO_COUNT>
9

> <PUBCHEM_COORDINATE_TYPE>
1
5
255

> <PUBCHEM_BONDANNOTATIONS>
11  15  8
11  17  8
12  16  8
12  18  8
15  19  8
16  20  8
17  21  8
18  23  8
19  22  8
20  24  8
21  22  8
23  24  8
7  13  6
8  14  6

$$$$
