73995022
  -OEChem-10012202092D

268268  0     1  0  0  0  0  0999 V2000
   38.9100   -3.0000    0.0000 P   0  0  0  0  0  0  0  0  0  0  0  0
   11.1972    1.0000    0.0000 O   0  0  0  0  0  0  0  0  0  0  0  0
   13.7953   -1.5000    0.0000 O   0  0  0  0  0  0  0  0  0  0  0  0
    8.5991   -1.5000    0.0000 O   0  0  0  0  0  0  0  0  0  0  0  0
   16.3933    1.0000    0.0000 O   0  0  0  0  0  0  0  0  0  0  0  0
   11.1972    3.0000    0.0000 O   0  0  0  0  0  0  0  0  0  0  0  0
    6.0010    1.0000    0.0000 O   0  0  0  0  0  0  0  0  0  0  0  0
   16.3933    3.0000    0.0000 O   0  0  0  0  0  0  0  0  0  0  0  0
   18.9914   -1.5000    0.0000 O   0  0  0  0  0  0  0  0  0  0  0  0
   23.3215   -2.0000    0.0000 O   0  0  0  0  0  0  0  0  0  0  0  0
   26.7856    1.0000    0.0000 O   0  0  0  0  0  0  0  0  0  0  0  0
   24.1876   -1.5000    0.0000 O   0  0  0  0  0  0  0  0  0  0  0  0
   29.3837   -1.5000    0.0000 O   0  0  0  0  0  0  0  0  0  0  0  0
   21.5895    1.0000    0.0000 O   0  0  0  0  0  0  0  0  0  0  0  0
   14.6613    3.0000    0.0000 O   0  0  0  0  0  0  0  0  0  0  0  0
   31.9818    1.0000    0.0000 O   0  0  0  0  0  0  0  0  0  0  0  0
   34.5799   -1.5000    0.0000 O   0  0  0  0  0  0  0  0  0  0  0  0
    2.5369    0.0000    0.0000 O   0  0  0  0  0  0  0  0  0  0  0  0
   16.3933   -3.0000    0.0000 O   0  0  0  0  0  0  0  0  0  0  0  0
    6.0010   -3.0000    0.0000 O   0  0  0  0  0  0  0  0  0  0  0  0
    3.4030   -1.5000    0.0000 O   0  0  0  0  0  0  0  0  0  0  0  0
   15.5273   -1.5000    0.0000 O   0  0  0  0  0  0  0  0  0  0  0  0
    5.1350   -1.5000    0.0000 O   0  0  0  0  0  0  0  0  0  0  0  0
   29.3837   -3.5000    0.0000 O   0  0  0  0  0  0  0  0  0  0  0  0
   26.7856    3.0000    0.0000 O   0  0  0  0  0  0  0  0  0  0  0  0
   37.1780    1.0000    0.0000 O   0  0  0  0  0  0  0  0  0  0  0  0
   31.9818    3.0000    0.0000 O   0  0  0  0  0  0  0  0  0  0  0  0
   38.9100   -2.0000    0.0000 O   0  0  0  0  0  0  0  0  0  0  0  0
   21.5895    3.0000    0.0000 O   0  0  0  0  0  0  0  0  0  0  0  0
   19.8574    3.0000    0.0000 O   0  0  0  0  0  0  0  0  0  0  0  0
   39.7760   -1.5000    0.0000 O   0  0  0  0  0  0  0  0  0  0  0  0
   34.5799   -3.5000    0.0000 O   0  0  0  0  0  0  0  0  0  0  0  0
   32.8478   -3.5000    0.0000 O   0  0  0  0  0  0  0  0  0  0  0  0
   37.1780    3.0000    0.0000 O   0  0  0  0  0  0  0  0  0  0  0  0
   42.3741    1.0000    0.0000 O   0  0  0  0  0  0  0  0  0  0  0  0
   35.4459    3.0000    0.0000 O   0  0  0  0  0  0  0  0  0  0  0  0
   42.3741    3.0000    0.0000 O   0  0  0  0  0  0  0  0  0  0  0  0
   38.9100   -4.0000    0.0000 O   0  0  0  0  0  0  0  0  0  0  0  0
   39.9100   -3.0000    0.0000 O   0  0  0  0  0  0  0  0  0  0  0  0
   37.9100   -3.0000    0.0000 O   0  0  0  0  0  0  0  0  0  0  0  0
   12.9292    0.0000    0.0000 N   0  0  0  0  0  0  0  0  0  0  0  0
   10.3312   -0.5000    0.0000 N   0  0  0  0  0  0  0  0  0  0  0  0
   15.5273   -0.5000    0.0000 N   0  0  0  0  0  0  0  0  0  0  0  0
    7.7331    0.0000    0.0000 N   0  0  0  0  0  0  0  0  0  0  0  0
   18.1254    0.0000    0.0000 N   0  0  0  0  0  0  0  0  0  0  0  0
    5.1350   -0.5000    0.0000 N   0  0  0  0  0  0  0  0  0  0  0  0
   20.7235   -0.5000    0.0000 N   0  0  0  0  0  0  0  0  0  0  0  0
   25.9196   -0.5000    0.0000 N   0  0  0  0  0  0  0  0  0  0  0  0
   28.5177    0.0000    0.0000 N   0  0  0  0  0  0  0  0  0  0  0  0
   23.3215    0.0000    0.0000 N   0  0  0  0  0  0  0  0  0  0  0  0
   31.1158   -0.5000    0.0000 N   0  0  0  0  0  0  0  0  0  0  0  0
   33.7139    0.0000    0.0000 N   0  0  0  0  0  0  0  0  0  0  0  0
    9.4651    3.0000    0.0000 N   0  0  0  0  0  0  0  0  0  0  0  0
   36.3119   -0.5000    0.0000 N   0  0  0  0  0  0  0  0  0  0  0  0
    2.5369    4.0000    0.0000 N   0  0  0  0  0  0  0  0  0  0  0  0
   38.9100   -0.0000    0.0000 N   0  0  0  0  0  0  0  0  0  0  0  0
   41.5081   -0.5000    0.0000 N   0  0  0  0  0  0  0  0  0  0  0  0
   27.6517   -3.5000    0.0000 N   0  0  0  0  0  0  0  0  0  0  0  0
   25.0536    3.0000    0.0000 N   0  0  0  0  0  0  0  0  0  0  0  0
   30.2498    3.0000    0.0000 N   0  0  0  0  0  0  0  0  0  0  0  0
   43.2401   -1.5000    0.0000 N   0  0  0  0  0  0  0  0  0  0  0  0
   40.6421    3.0000    0.0000 N   0  0  0  0  0  0  0  0  0  0  0  0
   12.0632   -1.5000    0.0000 C   0  0  0  0  0  0  0  0  0  0  0  0
   11.1972   -2.0000    0.0000 C   0  0  0  0  0  0  0  0  0  0  0  0
   12.0632   -0.5000    0.0000 C   0  0  3  0  0  0  0  0  0  0  0  0
   11.1972   -3.0000    0.0000 C   0  0  0  0  0  0  0  0  0  0  0  0
   10.3312   -1.5000    0.0000 C   0  0  0  0  0  0  0  0  0  0  0  0
   11.1972    0.0000    0.0000 C   0  0  0  0  0  0  0  0  0  0  0  0
    9.4651    0.0000    0.0000 C   0  0  3  0  0  0  0  0  0  0  0  0
   14.6613    0.0000    0.0000 C   0  0  3  0  0  0  0  0  0  0  0  0
   13.7953   -0.5000    0.0000 C   0  0  0  0  0  0  0  0  0  0  0  0
    9.4651    1.0000    0.0000 C   0  0  0  0  0  0  0  0  0  0  0  0
   14.6613    1.0000    0.0000 C   0  0  0  0  0  0  0  0  0  0  0  0
    8.5991   -0.5000    0.0000 C   0  0  0  0  0  0  0  0  0  0  0  0
   10.3312    1.5000    0.0000 C   0  0  0  0  0  0  0  0  0  0  0  0
   15.5273    1.5000    0.0000 C   0  0  0  0  0  0  0  0  0  0  0  0
   17.2594   -0.5000    0.0000 C   0  0  3  0  0  0  0  0  0  0  0  0
    6.8671   -0.5000    0.0000 C   0  0  3  0  0  0  0  0  0  0  0  0
   16.3933    0.0000    0.0000 C   0  0  0  0  0  0  0  0  0  0  0  0
   19.8574    0.0000    0.0000 C   0  0  3  0  0  0  0  0  0  0  0  0
    4.2690    1.0000    0.0000 C   0  0  0  0  0  0  0  0  0  0  0  0
   27.6517   -0.5000    0.0000 C   0  0  3  0  0  0  0  0  0  0  0  0
   25.0536    0.0000    0.0000 C   0  0  3  0  0  0  0  0  0  0  0  0
    4.2690    0.0000    0.0000 C   0  0  3  0  0  0  0  0  0  0  0  0
   30.2498    0.0000    0.0000 C   0  0  3  0  0  0  0  0  0  0  0  0
   22.4555   -0.5000    0.0000 C   0  0  3  0  0  0  0  0  0  0  0  0
    3.4030    1.5000    0.0000 C   0  0  0  0  0  0  0  0  0  0  0  0
   17.2594   -1.5000    0.0000 C   0  0  0  0  0  0  0  0  0  0  0  0
    6.8671   -1.5000    0.0000 C   0  0  0  0  0  0  0  0  0  0  0  0
   10.3312    2.5000    0.0000 C   0  0  0  0  0  0  0  0  0  0  0  0
   19.8574    1.0000    0.0000 C   0  0  0  0  0  0  0  0  0  0  0  0
    6.0010    0.0000    0.0000 C   0  0  0  0  0  0  0  0  0  0  0  0
   27.6517   -1.5000    0.0000 C   0  0  0  0  0  0  0  0  0  0  0  0
   25.0536    1.0000    0.0000 C   0  0  0  0  0  0  0  0  0  0  0  0
   15.5273    2.5000    0.0000 C   0  0  0  0  0  0  0  0  0  0  0  0
   30.2498    1.0000    0.0000 C   0  0  0  0  0  0  0  0  0  0  0  0
   32.8478   -0.5000    0.0000 C   0  0  3  0  0  0  0  0  0  0  0  0
   18.9914   -0.5000    0.0000 C   0  0  0  0  0  0  0  0  0  0  0  0
   22.4555   -1.5000    0.0000 C   0  0  3  0  0  0  0  0  0  0  0  0
    3.4030    2.5000    0.0000 C   0  0  0  0  0  0  0  0  0  0  0  0
   26.7856    0.0000    0.0000 C   0  0  0  0  0  0  0  0  0  0  0  0
   24.1876   -0.5000    0.0000 C   0  0  0  0  0  0  0  0  0  0  0  0
   21.5895    0.0000    0.0000 C   0  0  0  0  0  0  0  0  0  0  0  0
   29.3837   -0.5000    0.0000 C   0  0  0  0  0  0  0  0  0  0  0  0
   32.8478   -1.5000    0.0000 C   0  0  0  0  0  0  0  0  0  0  0  0
   28.5177   -2.0000    0.0000 C   0  0  0  0  0  0  0  0  0  0  0  0
   31.9818    0.0000    0.0000 C   0  0  0  0  0  0  0  0  0  0  0  0
   25.9196    1.5000    0.0000 C   0  0  0  0  0  0  0  0  0  0  0  0
   35.4459   -0.0000    0.0000 C   0  0  3  0  0  0  0  0  0  0  0  0
   20.7235    1.5000    0.0000 C   0  0  0  0  0  0  0  0  0  0  0  0
   31.1158    1.5000    0.0000 C   0  0  0  0  0  0  0  0  0  0  0  0
    2.5369    3.0000    0.0000 C   0  0  0  0  0  0  0  0  0  0  0  0
   35.4459    1.0000    0.0000 C   0  0  0  0  0  0  0  0  0  0  0  0
   33.7139   -2.0000    0.0000 C   0  0  0  0  0  0  0  0  0  0  0  0
    3.4030   -0.5000    0.0000 C   0  0  0  0  0  0  0  0  0  0  0  0
   21.5895   -2.0000    0.0000 C   0  0  0  0  0  0  0  0  0  0  0  0
   34.5799   -0.5000    0.0000 C   0  0  0  0  0  0  0  0  0  0  0  0
   16.3933   -2.0000    0.0000 C   0  0  0  0  0  0  0  0  0  0  0  0
    6.0010   -2.0000    0.0000 C   0  0  0  0  0  0  0  0  0  0  0  0
   36.3119    1.5000    0.0000 C   0  0  0  0  0  0  0  0  0  0  0  0
   38.0440   -0.5000    0.0000 C   0  0  3  0  0  0  0  0  0  0  0  0
   40.6421   -0.0000    0.0000 C   0  0  3  0  0  0  0  0  0  0  0  0
   28.5177   -3.0000    0.0000 C   0  0  0  0  0  0  0  0  0  0  0  0
   25.9196    2.5000    0.0000 C   0  0  0  0  0  0  0  0  0  0  0  0
   37.1780   -0.0000    0.0000 C   0  0  0  0  0  0  0  0  0  0  0  0
   31.1158    2.5000    0.0000 C   0  0  0  0  0  0  0  0  0  0  0  0
   20.7235    2.5000    0.0000 C   0  0  0  0  0  0  0  0  0  0  0  0
   40.6421    1.0000    0.0000 C   0  0  0  0  0  0  0  0  0  0  0  0
   38.0440   -1.5000    0.0000 C   0  0  0  0  0  0  0  0  0  0  0  0
   39.7760   -0.5000    0.0000 C   0  0  0  0  0  0  0  0  0  0  0  0
   33.7139   -3.0000    0.0000 C   0  0  0  0  0  0  0  0  0  0  0  0
   43.2401   -0.5000    0.0000 C   0  0  3  0  0  0  0  0  0  0  0  0
   41.5081    1.5000    0.0000 C   0  0  0  0  0  0  0  0  0  0  0  0
   44.1062   -0.0000    0.0000 C   0  0  0  0  0  0  0  0  0  0  0  0
   36.3119    2.5000    0.0000 C   0  0  0  0  0  0  0  0  0  0  0  0
   42.3741   -0.0000    0.0000 C   0  0  0  0  0  0  0  0  0  0  0  0
   44.9722   -0.5000    0.0000 C   0  0  0  0  0  0  0  0  0  0  0  0
   41.5081    2.5000    0.0000 C   0  0  0  0  0  0  0  0  0  0  0  0
   45.8382   -0.0000    0.0000 C   0  0  0  0  0  0  0  0  0  0  0  0
   44.9722   -1.5000    0.0000 C   0  0  0  0  0  0  0  0  0  0  0  0
   46.7042   -0.5000    0.0000 C   0  0  0  0  0  0  0  0  0  0  0  0
   45.8382   -2.0000    0.0000 C   0  0  0  0  0  0  0  0  0  0  0  0
   46.7042   -1.5000    0.0000 C   0  0  0  0  0  0  0  0  0  0  0  0
   12.2753   -2.0826    0.0000 H   0  0  0  0  0  0  0  0  0  0  0  0
   12.6738   -1.3923    0.0000 H   0  0  0  0  0  0  0  0  0  0  0  0
   10.6603   -2.3100    0.0000 H   0  0  0  0  0  0  0  0  0  0  0  0
   12.6002   -0.8100    0.0000 H   0  0  0  0  0  0  0  0  0  0  0  0
   10.5772   -3.0000    0.0000 H   0  0  0  0  0  0  0  0  0  0  0  0
   11.1972   -3.6200    0.0000 H   0  0  0  0  0  0  0  0  0  0  0  0
   11.8172   -3.0000    0.0000 H   0  0  0  0  0  0  0  0  0  0  0  0
   10.6412   -0.9631    0.0000 H   0  0  0  0  0  0  0  0  0  0  0  0
    9.7942   -1.1900    0.0000 H   0  0  0  0  0  0  0  0  0  0  0  0
   10.0212   -2.0369    0.0000 H   0  0  0  0  0  0  0  0  0  0  0  0
    9.4651   -0.6200    0.0000 H   0  0  0  0  0  0  0  0  0  0  0  0
   15.1982    0.3100    0.0000 H   0  0  0  0  0  0  0  0  0  0  0  0
    9.2531    1.5826    0.0000 H   0  0  0  0  0  0  0  0  0  0  0  0
    8.8546    0.8923    0.0000 H   0  0  0  0  0  0  0  0  0  0  0  0
   14.4492    1.5826    0.0000 H   0  0  0  0  0  0  0  0  0  0  0  0
   14.0507    0.8923    0.0000 H   0  0  0  0  0  0  0  0  0  0  0  0
   10.5432    0.9174    0.0000 H   0  0  0  0  0  0  0  0  0  0  0  0
   10.9417    1.6077    0.0000 H   0  0  0  0  0  0  0  0  0  0  0  0
   15.7394    0.9174    0.0000 H   0  0  0  0  0  0  0  0  0  0  0  0
   16.1379    1.6077    0.0000 H   0  0  0  0  0  0  0  0  0  0  0  0
   11.7341    1.3100    0.0000 H   0  0  0  0  0  0  0  0  0  0  0  0
   17.7963   -0.8100    0.0000 H   0  0  0  0  0  0  0  0  0  0  0  0
    6.8671    0.1200    0.0000 H   0  0  0  0  0  0  0  0  0  0  0  0
   19.8574   -0.6200    0.0000 H   0  0  0  0  0  0  0  0  0  0  0  0
   14.3322   -1.8100    0.0000 H   0  0  0  0  0  0  0  0  0  0  0  0
    4.8796    0.8923    0.0000 H   0  0  0  0  0  0  0  0  0  0  0  0
    4.4810    1.5826    0.0000 H   0  0  0  0  0  0  0  0  0  0  0  0
   28.1886   -0.8100    0.0000 H   0  0  0  0  0  0  0  0  0  0  0  0
   25.5905    0.3100    0.0000 H   0  0  0  0  0  0  0  0  0  0  0  0
    4.8059    0.3100    0.0000 H   0  0  0  0  0  0  0  0  0  0  0  0
   30.7867    0.3100    0.0000 H   0  0  0  0  0  0  0  0  0  0  0  0
   22.4555    0.1200    0.0000 H   0  0  0  0  0  0  0  0  0  0  0  0
    2.7924    1.6077    0.0000 H   0  0  0  0  0  0  0  0  0  0  0  0
    3.1909    0.9174    0.0000 H   0  0  0  0  0  0  0  0  0  0  0  0
   17.4714   -2.0826    0.0000 H   0  0  0  0  0  0  0  0  0  0  0  0
   17.8699   -1.3923    0.0000 H   0  0  0  0  0  0  0  0  0  0  0  0
    7.0791   -2.0826    0.0000 H   0  0  0  0  0  0  0  0  0  0  0  0
    7.4776   -1.3923    0.0000 H   0  0  0  0  0  0  0  0  0  0  0  0
   19.6454    1.5826    0.0000 H   0  0  0  0  0  0  0  0  0  0  0  0
   19.2469    0.8923    0.0000 H   0  0  0  0  0  0  0  0  0  0  0  0
   27.0411   -1.3923    0.0000 H   0  0  0  0  0  0  0  0  0  0  0  0
   27.4396   -2.0826    0.0000 H   0  0  0  0  0  0  0  0  0  0  0  0
   24.8415    1.5826    0.0000 H   0  0  0  0  0  0  0  0  0  0  0  0
   24.4430    0.8923    0.0000 H   0  0  0  0  0  0  0  0  0  0  0  0
   30.0377    1.5826    0.0000 H   0  0  0  0  0  0  0  0  0  0  0  0
   29.6392    0.8923    0.0000 H   0  0  0  0  0  0  0  0  0  0  0  0
   32.8478    0.1200    0.0000 H   0  0  0  0  0  0  0  0  0  0  0  0
   22.4555   -2.1200    0.0000 H   0  0  0  0  0  0  0  0  0  0  0  0
    4.0135    2.3923    0.0000 H   0  0  0  0  0  0  0  0  0  0  0  0
    3.6150    3.0826    0.0000 H   0  0  0  0  0  0  0  0  0  0  0  0
   32.2372   -1.3923    0.0000 H   0  0  0  0  0  0  0  0  0  0  0  0
   32.6358   -2.0826    0.0000 H   0  0  0  0  0  0  0  0  0  0  0  0
    9.1360   -1.8100    0.0000 H   0  0  0  0  0  0  0  0  0  0  0  0
   29.1283   -2.1077    0.0000 H   0  0  0  0  0  0  0  0  0  0  0  0
   28.7298   -1.4174    0.0000 H   0  0  0  0  0  0  0  0  0  0  0  0
   35.4459   -0.6200    0.0000 H   0  0  0  0  0  0  0  0  0  0  0  0
   26.1317    0.9174    0.0000 H   0  0  0  0  0  0  0  0  0  0  0  0
   26.5302    1.6077    0.0000 H   0  0  0  0  0  0  0  0  0  0  0  0
   20.9355    0.9174    0.0000 H   0  0  0  0  0  0  0  0  0  0  0  0
   21.3341    1.6077    0.0000 H   0  0  0  0  0  0  0  0  0  0  0  0
   31.3278    0.9174    0.0000 H   0  0  0  0  0  0  0  0  0  0  0  0
   31.7264    1.6077    0.0000 H   0  0  0  0  0  0  0  0  0  0  0  0
    1.9264    3.1077    0.0000 H   0  0  0  0  0  0  0  0  0  0  0  0
    2.3249    2.4174    0.0000 H   0  0  0  0  0  0  0  0  0  0  0  0
   35.2338    1.5826    0.0000 H   0  0  0  0  0  0  0  0  0  0  0  0
   34.8353    0.8923    0.0000 H   0  0  0  0  0  0  0  0  0  0  0  0
   34.3244   -2.1077    0.0000 H   0  0  0  0  0  0  0  0  0  0  0  0
   33.9259   -1.4174    0.0000 H   0  0  0  0  0  0  0  0  0  0  0  0
   21.2795   -1.4631    0.0000 H   0  0  0  0  0  0  0  0  0  0  0  0
   21.0526   -2.3100    0.0000 H   0  0  0  0  0  0  0  0  0  0  0  0
   21.8995   -2.5369    0.0000 H   0  0  0  0  0  0  0  0  0  0  0  0
   16.9303    1.3100    0.0000 H   0  0  0  0  0  0  0  0  0  0  0  0
   36.5240    0.9174    0.0000 H   0  0  0  0  0  0  0  0  0  0  0  0
   36.9225    1.6077    0.0000 H   0  0  0  0  0  0  0  0  0  0  0  0
   38.5809   -0.8100    0.0000 H   0  0  0  0  0  0  0  0  0  0  0  0
   11.1972    3.6200    0.0000 H   0  0  0  0  0  0  0  0  0  0  0  0
    9.4651    3.6200    0.0000 H   0  0  0  0  0  0  0  0  0  0  0  0
   41.1790    0.3100    0.0000 H   0  0  0  0  0  0  0  0  0  0  0  0
    6.5380    1.3100    0.0000 H   0  0  0  0  0  0  0  0  0  0  0  0
   16.3933    3.6200    0.0000 H   0  0  0  0  0  0  0  0  0  0  0  0
   19.5284   -1.8100    0.0000 H   0  0  0  0  0  0  0  0  0  0  0  0
   23.3215   -2.6200    0.0000 H   0  0  0  0  0  0  0  0  0  0  0  0
   40.4300    1.5826    0.0000 H   0  0  0  0  0  0  0  0  0  0  0  0
   40.0315    0.8923    0.0000 H   0  0  0  0  0  0  0  0  0  0  0  0
   27.3226    1.3100    0.0000 H   0  0  0  0  0  0  0  0  0  0  0  0
   24.7245   -1.8100    0.0000 H   0  0  0  0  0  0  0  0  0  0  0  0
   29.9207   -1.8100    0.0000 H   0  0  0  0  0  0  0  0  0  0  0  0
   22.1264    1.3100    0.0000 H   0  0  0  0  0  0  0  0  0  0  0  0
    2.0000    4.3100    0.0000 H   0  0  0  0  0  0  0  0  0  0  0  0
    3.0739    4.3100    0.0000 H   0  0  0  0  0  0  0  0  0  0  0  0
   37.4334   -1.3923    0.0000 H   0  0  0  0  0  0  0  0  0  0  0  0
   37.8319   -2.0826    0.0000 H   0  0  0  0  0  0  0  0  0  0  0  0
   32.5187    1.3100    0.0000 H   0  0  0  0  0  0  0  0  0  0  0  0
   43.7771   -0.8100    0.0000 H   0  0  0  0  0  0  0  0  0  0  0  0
   41.7201    0.9174    0.0000 H   0  0  0  0  0  0  0  0  0  0  0  0
   42.1187    1.6077    0.0000 H   0  0  0  0  0  0  0  0  0  0  0  0
   44.5047    0.4749    0.0000 H   0  0  0  0  0  0  0  0  0  0  0  0
   43.7076    0.4749    0.0000 H   0  0  0  0  0  0  0  0  0  0  0  0
   35.1168   -1.8100    0.0000 H   0  0  0  0  0  0  0  0  0  0  0  0
    2.0000   -0.3100    0.0000 H   0  0  0  0  0  0  0  0  0  0  0  0
   15.8564   -3.3100    0.0000 H   0  0  0  0  0  0  0  0  0  0  0  0
    6.5380   -3.3100    0.0000 H   0  0  0  0  0  0  0  0  0  0  0  0
   29.3837   -4.1200    0.0000 H   0  0  0  0  0  0  0  0  0  0  0  0
   27.6517   -4.1200    0.0000 H   0  0  0  0  0  0  0  0  0  0  0  0
   26.7856    3.6200    0.0000 H   0  0  0  0  0  0  0  0  0  0  0  0
   25.0536    3.6200    0.0000 H   0  0  0  0  0  0  0  0  0  0  0  0
   37.7149    1.3100    0.0000 H   0  0  0  0  0  0  0  0  0  0  0  0
   31.9818    3.6200    0.0000 H   0  0  0  0  0  0  0  0  0  0  0  0
   30.2498    3.6200    0.0000 H   0  0  0  0  0  0  0  0  0  0  0  0
   21.5895    3.6200    0.0000 H   0  0  0  0  0  0  0  0  0  0  0  0
   42.7032   -1.8100    0.0000 H   0  0  0  0  0  0  0  0  0  0  0  0
   43.7771   -1.8100    0.0000 H   0  0  0  0  0  0  0  0  0  0  0  0
   40.3130   -1.8100    0.0000 H   0  0  0  0  0  0  0  0  0  0  0  0
   34.5799   -4.1200    0.0000 H   0  0  0  0  0  0  0  0  0  0  0  0
   45.8382    0.6200    0.0000 H   0  0  0  0  0  0  0  0  0  0  0  0
   44.4352   -1.8100    0.0000 H   0  0  0  0  0  0  0  0  0  0  0  0
   37.1780    3.6200    0.0000 H   0  0  0  0  0  0  0  0  0  0  0  0
   42.9110    1.3100    0.0000 H   0  0  0  0  0  0  0  0  0  0  0  0
   47.2412   -0.1900    0.0000 H   0  0  0  0  0  0  0  0  0  0  0  0
   45.8382   -2.6200    0.0000 H   0  0  0  0  0  0  0  0  0  0  0  0
   47.2412   -1.8100    0.0000 H   0  0  0  0  0  0  0  0  0  0  0  0
   42.3741    3.6200    0.0000 H   0  0  0  0  0  0  0  0  0  0  0  0
   40.6421    3.6200    0.0000 H   0  0  0  0  0  0  0  0  0  0  0  0
   39.4469   -4.3100    0.0000 H   0  0  0  0  0  0  0  0  0  0  0  0
   40.2200   -3.5369    0.0000 H   0  0  0  0  0  0  0  0  0  0  0  0
  1 28  1  0  0  0  0
  1 38  1  0  0  0  0
  1 39  1  0  0  0  0
  1 40  2  0  0  0  0
  2 68  1  0  0  0  0
  2164  1  0  0  0  0
  3 71  1  0  0  0  0
  3168  1  0  0  0  0
  4 74  1  0  0  0  0
  4196  1  0  0  0  0
  5 79  1  0  0  0  0
  5215  1  0  0  0  0
  6 90  1  0  0  0  0
  6219  1  0  0  0  0
  7 92  1  0  0  0  0
  7222  1  0  0  0  0
  8 95  1  0  0  0  0
  8223  1  0  0  0  0
  9 98  1  0  0  0  0
  9224  1  0  0  0  0
 10 99  1  0  0  0  0
 10225  1  0  0  0  0
 11101  1  0  0  0  0
 11228  1  0  0  0  0
 12102  1  0  0  0  0
 12229  1  0  0  0  0
 13104  1  0  0  0  0
 13230  1  0  0  0  0
 14103  1  0  0  0  0
 14231  1  0  0  0  0
 15 95  2  0  0  0  0
 16107  1  0  0  0  0
 16236  1  0  0  0  0
 17117  1  0  0  0  0
 17242  1  0  0  0  0
 18115  1  0  0  0  0
 18243  1  0  0  0  0
 19118  1  0  0  0  0
 19244  1  0  0  0  0
 20119  1  0  0  0  0
 20245  1  0  0  0  0
 21115  2  0  0  0  0
 22118  2  0  0  0  0
 23119  2  0  0  0  0
 24123  1  0  0  0  0
 24246  1  0  0  0  0
 25124  1  0  0  0  0
 25248  1  0  0  0  0
 26125  1  0  0  0  0
 26250  1  0  0  0  0
 27126  1  0  0  0  0
 27251  1  0  0  0  0
 28129  1  0  0  0  0
 29127  1  0  0  0  0
 29253  1  0  0  0  0
 30127  2  0  0  0  0
 31130  1  0  0  0  0
 31256  1  0  0  0  0
 32131  1  0  0  0  0
 32257  1  0  0  0  0
 33131  2  0  0  0  0
 34135  1  0  0  0  0
 34260  1  0  0  0  0
 35136  1  0  0  0  0
 35261  1  0  0  0  0
 36135  2  0  0  0  0
 37138  1  0  0  0  0
 37265  1  0  0  0  0
 38267  1  0  0  0  0
 39268  1  0  0  0  0
 41 65  1  0  0  0  0
 41 71  2  0  0  0  0
 42 68  2  0  0  0  0
 42 69  1  0  0  0  0
 43 70  1  0  0  0  0
 43 79  2  0  0  0  0
 44 74  2  0  0  0  0
 44 78  1  0  0  0  0
 45 77  1  0  0  0  0
 45 98  2  0  0  0  0
 46 84  1  0  0  0  0
 46 92  2  0  0  0  0
 47 80  1  0  0  0  0
 47103  2  0  0  0  0
 48 83  1  0  0  0  0
 48101  2  0  0  0  0
 49 82  1  0  0  0  0
 49104  2  0  0  0  0
 50 86  1  0  0  0  0
 50102  2  0  0  0  0
 51 85  1  0  0  0  0
 51107  2  0  0  0  0
 52 97  1  0  0  0  0
 52117  2  0  0  0  0
 53 90  2  0  0  0  0
 53220  1  0  0  0  0
 54109  1  0  0  0  0
 54125  2  0  0  0  0
 55112  1  0  0  0  0
 55232  1  0  0  0  0
 55233  1  0  0  0  0
 56121  1  0  0  0  0
 56130  2  0  0  0  0
 57122  1  0  0  0  0
 57136  2  0  0  0  0
 58123  2  0  0  0  0
 58247  1  0  0  0  0
 59124  2  0  0  0  0
 59249  1  0  0  0  0
 60126  2  0  0  0  0
 60252  1  0  0  0  0
 61132  1  0  0  0  0
 61254  1  0  0  0  0
 61255  1  0  0  0  0
 62138  2  0  0  0  0
 62266  1  0  0  0  0
 63 64  1  0  0  0  0
 63 65  1  0  0  0  0
 63144  1  0  0  0  0
 63145  1  0  0  0  0
 64 66  1  0  0  0  0
 64 67  1  0  0  0  0
 64146  1  0  0  0  0
 65 68  1  0  0  0  0
 65147  1  0  0  0  0
 66148  1  0  0  0  0
 66149  1  0  0  0  0
 66150  1  0  0  0  0
 67151  1  0  0  0  0
 67152  1  0  0  0  0
 67153  1  0  0  0  0
 69 72  1  0  0  0  0
 69 74  1  0  0  0  0
 69154  1  0  0  0  0
 70 71  1  0  0  0  0
 70 73  1  0  0  0  0
 70155  1  0  0  0  0
 72 75  1  0  0  0  0
 72156  1  0  0  0  0
 72157  1  0  0  0  0
 73 76  1  0  0  0  0
 73158  1  0  0  0  0
 73159  1  0  0  0  0
 75 90  1  0  0  0  0
 75160  1  0  0  0  0
 75161  1  0  0  0  0
 76 95  1  0  0  0  0
 76162  1  0  0  0  0
 76163  1  0  0  0  0
 77 79  1  0  0  0  0
 77 88  1  0  0  0  0
 77165  1  0  0  0  0
 78 89  1  0  0  0  0
 78 92  1  0  0  0  0
 78166  1  0  0  0  0
 80 91  1  0  0  0  0
 80 98  1  0  0  0  0
 80167  1  0  0  0  0
 81 84  1  0  0  0  0
 81 87  1  0  0  0  0
 81169  1  0  0  0  0
 81170  1  0  0  0  0
 82 93  1  0  0  0  0
 82101  1  0  0  0  0
 82171  1  0  0  0  0
 83 94  1  0  0  0  0
 83102  1  0  0  0  0
 83172  1  0  0  0  0
 84115  1  0  0  0  0
 84173  1  0  0  0  0
 85 96  1  0  0  0  0
 85104  1  0  0  0  0
 85174  1  0  0  0  0
 86 99  1  0  0  0  0
 86103  1  0  0  0  0
 86175  1  0  0  0  0
 87100  1  0  0  0  0
 87176  1  0  0  0  0
 87177  1  0  0  0  0
 88118  1  0  0  0  0
 88178  1  0  0  0  0
 88179  1  0  0  0  0
 89119  1  0  0  0  0
 89180  1  0  0  0  0
 89181  1  0  0  0  0
 91110  1  0  0  0  0
 91182  1  0  0  0  0
 91183  1  0  0  0  0
 93106  1  0  0  0  0
 93184  1  0  0  0  0
 93185  1  0  0  0  0
 94108  1  0  0  0  0
 94186  1  0  0  0  0
 94187  1  0  0  0  0
 96111  1  0  0  0  0
 96188  1  0  0  0  0
 96189  1  0  0  0  0
 97105  1  0  0  0  0
 97107  1  0  0  0  0
 97190  1  0  0  0  0
 99116  1  0  0  0  0
 99191  1  0  0  0  0
100112  1  0  0  0  0
100192  1  0  0  0  0
100193  1  0  0  0  0
105114  1  0  0  0  0
105194  1  0  0  0  0
105195  1  0  0  0  0
106123  1  0  0  0  0
106197  1  0  0  0  0
106198  1  0  0  0  0
108124  1  0  0  0  0
108200  1  0  0  0  0
108201  1  0  0  0  0
109113  1  0  0  0  0
109117  1  0  0  0  0
109199  1  0  0  0  0
110127  1  0  0  0  0
110202  1  0  0  0  0
110203  1  0  0  0  0
111126  1  0  0  0  0
111204  1  0  0  0  0
111205  1  0  0  0  0
112206  1  0  0  0  0
112207  1  0  0  0  0
113120  1  0  0  0  0
113208  1  0  0  0  0
113209  1  0  0  0  0
114131  1  0  0  0  0
114210  1  0  0  0  0
114211  1  0  0  0  0
116212  1  0  0  0  0
116213  1  0  0  0  0
116214  1  0  0  0  0
120135  1  0  0  0  0
120216  1  0  0  0  0
120217  1  0  0  0  0
121125  1  0  0  0  0
121129  1  0  0  0  0
121218  1  0  0  0  0
122128  1  0  0  0  0
122130  1  0  0  0  0
122221  1  0  0  0  0
128133  1  0  0  0  0
128226  1  0  0  0  0
128227  1  0  0  0  0
129234  1  0  0  0  0
129235  1  0  0  0  0
132134  1  0  0  0  0
132136  1  0  0  0  0
132237  1  0  0  0  0
133138  1  0  0  0  0
133238  1  0  0  0  0
133239  1  0  0  0  0
134137  1  0  0  0  0
134240  1  0  0  0  0
134241  1  0  0  0  0
137139  2  0  0  0  0
137140  1  0  0  0  0
139141  1  0  0  0  0
139258  1  0  0  0  0
140142  2  0  0  0  0
140259  1  0  0  0  0
141143  2  0  0  0  0
141262  1  0  0  0  0
142143  1  0  0  0  0
142263  1  0  0  0  0
143264  1  0  0  0  0
M  END
> <PUBCHEM_COMPOUND_CID>
73995022

> <PUBCHEM_COMPOUND_CANONICALIZED>
1

> <PUBCHEM_CACTVS_COMPLEXITY>
4830

> <PUBCHEM_CACTVS_HBOND_ACCEPTOR>
61

> <PUBCHEM_CACTVS_HBOND_DONOR>
37

> <PUBCHEM_CACTVS_ROTATABLE_BOND>
74

> <PUBCHEM_CACTVS_SUBSKEYS>
AAADcfB//gIAAAAAAAAAAAAAAAAAAAAAAAAwAAAAAAAAAAABAAAAHgAQCCAADTzhmAYyCIJAAxCoQiDyDIACAAAgAAAIiIGwAIgKMDqAkRGAYAAnkAAIiAf+7KAOAAAAAAAAAAAAAAAAAAAAAAAAAAAAAA==

> <PUBCHEM_IUPAC_OPENEYE_NAME>
6-amino-2-[[2-[[2-[[2-[[2-[[2-[[2-[[2-[[2-[[2-[[2-[[2-[[2-[[2-[[2-[(2-amino-1-hydroxy-3-phenyl-propylidene)amino]-1,5-dihydroxy-5-imino-pentylidene]amino]-1-hydroxy-3-phosphonooxy-propylidene]amino]-4-carboxy-1-hydroxy-butylidene]amino]-4-carboxy-1-hydroxy-butylidene]amino]-1,5-dihydroxy-5-imino-pentylidene]amino]-1,5-dihydroxy-5-imino-pentylidene]amino]-1,5-dihydroxy-5-imino-pentylidene]amino]-1,3-dihydroxy-butylidene]amino]-4-carboxy-1-hydroxy-butylidene]amino]-3-carboxy-1-hydroxy-propylidene]amino]-4-carboxy-1-hydroxy-butylidene]amino]-1-hydroxy-4-methyl-pentylidene]amino]-1,5-dihydroxy-5-imino-pentylidene]amino]-3-carboxy-1-hydroxy-propylidene]amino]hexanoic acid

> <PUBCHEM_IUPAC_CAS_NAME>
6-amino-2-[[2-[[2-[[2-[[2-[[2-[[2-[[2-[[2-[[2-[[2-[[2-[[2-[[2-[[2-[(2-amino-1-hydroxy-3-phenylpropylidene)amino]-1,5-dihydroxy-5-iminopentylidene]amino]-1-hydroxy-3-phosphonooxypropylidene]amino]-4-carboxy-1-hydroxybutylidene]amino]-4-carboxy-1-hydroxybutylidene]amino]-1,5-dihydroxy-5-iminopentylidene]amino]-1,5-dihydroxy-5-iminopentylidene]amino]-1,5-dihydroxy-5-iminopentylidene]amino]-1,3-dihydroxybutylidene]amino]-4-carboxy-1-hydroxybutylidene]amino]-3-carboxy-1-hydroxypropylidene]amino]-4-carboxy-1-hydroxybutylidene]amino]-1-hydroxy-4-methylpentylidene]amino]-1,5-dihydroxy-5-iminopentylidene]amino]-3-carboxy-1-hydroxypropylidene]amino]hexanoic acid

> <PUBCHEM_IUPAC_NAME_MARKUP>
6-amino-2-[[2-[[2-[[2-[[2-[[2-[[2-[[2-[[2-[[2-[[2-[[2-[[2-[[2-[[2-[(2-amino-1-hydroxy-3-phenylpropylidene)amino]-1,5-dihydroxy-5-iminopentylidene]amino]-1-hydroxy-3-phosphonooxypropylidene]amino]-4-carboxy-1-hydroxybutylidene]amino]-4-carboxy-1-hydroxybutylidene]amino]-1,5-dihydroxy-5-iminopentylidene]amino]-1,5-dihydroxy-5-iminopentylidene]amino]-1,5-dihydroxy-5-iminopentylidene]amino]-1,3-dihydroxybutylidene]amino]-4-carboxy-1-hydroxybutylidene]amino]-3-carboxy-1-hydroxypropylidene]amino]-4-carboxy-1-hydroxybutylidene]amino]-1-hydroxy-4-methylpentylidene]amino]-1,5-dihydroxy-5-iminopentylidene]amino]-3-carboxy-1-hydroxypropylidene]amino]hexanoic acid

> <PUBCHEM_IUPAC_NAME>
6-amino-2-[[2-[[2-[[2-[[2-[[2-[[2-[[2-[[2-[[2-[[2-[[2-[[2-[[2-[[2-[(2-amino-1-hydroxy-3-phenylpropylidene)amino]-1,5-dihydroxy-5-iminopentylidene]amino]-1-hydroxy-3-phosphonooxypropylidene]amino]-4-carboxy-1-hydroxybutylidene]amino]-4-carboxy-1-hydroxybutylidene]amino]-1,5-dihydroxy-5-iminopentylidene]amino]-1,5-dihydroxy-5-iminopentylidene]amino]-1,5-dihydroxy-5-iminopentylidene]amino]-1,3-dihydroxybutylidene]amino]-4-carboxy-1-hydroxybutylidene]amino]-3-carboxy-1-hydroxypropylidene]amino]-4-carboxy-1-hydroxybutylidene]amino]-1-hydroxy-4-methylpentylidene]amino]-1,5-dihydroxy-5-iminopentylidene]amino]-3-carboxy-1-hydroxypropylidene]amino]hexanoic acid

> <PUBCHEM_IUPAC_SYSTEMATIC_NAME>
6-azanyl-2-[[2-[[5-azanylidene-2-[[2-[[2-[[2-[[2-[[2-[[5-azanylidene-2-[[5-azanylidene-2-[[5-azanylidene-2-[[2-[[2-[[2-[[5-azanylidene-2-[(2-azanyl-1-oxidanyl-3-phenyl-propylidene)amino]-1,5-bis(oxidanyl)pentylidene]amino]-1-oxidanyl-3-phosphonooxy-propylidene]amino]-1,5-bis(oxidanyl)-5-oxidanylidene-pentylidene]amino]-1,5-bis(oxidanyl)-5-oxidanylidene-pentylidene]amino]-1,5-bis(oxidanyl)pentylidene]amino]-1,5-bis(oxidanyl)pentylidene]amino]-1,5-bis(oxidanyl)pentylidene]amino]-1,3-bis(oxidanyl)butylidene]amino]-1,5-bis(oxidanyl)-5-oxidanylidene-pentylidene]amino]-1,4-bis(oxidanyl)-4-oxidanylidene-butylidene]amino]-1,5-bis(oxidanyl)-5-oxidanylidene-pentylidene]amino]-4-methyl-1-oxidanyl-pentylidene]amino]-1,5-bis(oxidanyl)pentylidene]amino]-1,4-bis(oxidanyl)-4-oxidanylidene-butylidene]amino]hexanoic acid

> <PUBCHEM_IUPAC_TRADITIONAL_NAME>
6-amino-2-[[2-[[2-[[2-[[2-[[2-[[2-[[2-[[2-[[2-[[2-[[2-[[2-[[2-[[2-[(2-amino-1-hydroxy-3-phenyl-propylidene)amino]-1,5-dihydroxy-5-imino-pentylidene]amino]-1-hydroxy-3-phosphonooxy-propylidene]amino]-4-carboxy-1-hydroxy-butylidene]amino]-4-carboxy-1-hydroxy-butylidene]amino]-1,5-dihydroxy-5-imino-pentylidene]amino]-1,5-dihydroxy-5-imino-pentylidene]amino]-1,5-dihydroxy-5-imino-pentylidene]amino]-1,3-dihydroxy-butylidene]amino]-4-carboxy-1-hydroxy-butylidene]amino]-3-carboxy-1-hydroxy-propylidene]amino]-4-carboxy-1-hydroxy-butylidene]amino]-1-hydroxy-4-methyl-pentylidene]amino]-1,5-dihydroxy-5-imino-pentylidene]amino]-3-carboxy-1-hydroxy-propylidene]amino]hexanoic acid

> <PUBCHEM_IUPAC_INCHI>
InChI=1S/C81H125N22O39P/c1-36(2)31-50(76(132)94-43(15-24-57(87)108)71(127)101-52(34-64(120)121)78(134)98-49(81(137)138)11-7-8-30-82)99-72(128)47(19-28-61(114)115)95-77(133)51(33-63(118)119)100-73(129)48(20-29-62(116)117)97-80(136)65(37(3)104)103-75(131)44(16-25-58(88)109)92-68(124)42(14-23-56(86)107)90-67(123)41(13-22-55(85)106)91-69(125)45(17-26-59(110)111)93-70(126)46(18-27-60(112)113)96-79(135)53(35-142-143(139,140)141)102-74(130)40(12-21-54(84)105)89-66(122)39(83)32-38-9-5-4-6-10-38/h4-6,9-10,36-37,39-53,65,104H,7-8,11-35,82-83H2,1-3H3,(H2,84,105)(H2,85,106)(H2,86,107)(H2,87,108)(H2,88,109)(H,89,122)(H,90,123)(H,91,125)(H,92,124)(H,93,126)(H,94,132)(H,95,133)(H,96,135)(H,97,136)(H,98,134)(H,99,128)(H,100,129)(H,101,127)(H,102,130)(H,103,131)(H,110,111)(H,112,113)(H,114,115)(H,116,117)(H,118,119)(H,120,121)(H,137,138)(H2,139,140,141)

> <PUBCHEM_IUPAC_INCHIKEY>
BECPQYXYKAMYBN-UHFFFAOYSA-N

> <PUBCHEM_XLOGP3_AA>
-7.1

> <PUBCHEM_EXACT_MASS>
2060.8211892

> <PUBCHEM_MOLECULAR_FORMULA>
C81H125N22O39P

> <PUBCHEM_MOLECULAR_WEIGHT>
2062.0

> <PUBCHEM_OPENEYE_CAN_SMILES>
CC(C)CC(C(=NC(CCC(=N)O)C(=NC(CC(=O)O)C(=NC(CCCCN)C(=O)O)O)O)O)N=C(C(CCC(=O)O)N=C(C(CC(=O)O)N=C(C(CCC(=O)O)N=C(C(C(C)O)N=C(C(CCC(=N)O)N=C(C(CCC(=N)O)N=C(C(CCC(=N)O)N=C(C(CCC(=O)O)N=C(C(CCC(=O)O)N=C(C(COP(=O)(O)O)N=C(C(CCC(=N)O)N=C(C(CC1=CC=CC=C1)N)O)O)O)O)O)O)O)O)O)O)O)O

> <PUBCHEM_OPENEYE_ISO_SMILES>
CC(C)CC(C(=NC(CCC(=N)O)C(=NC(CC(=O)O)C(=NC(CCCCN)C(=O)O)O)O)O)N=C(C(CCC(=O)O)N=C(C(CC(=O)O)N=C(C(CCC(=O)O)N=C(C(C(C)O)N=C(C(CCC(=N)O)N=C(C(CCC(=N)O)N=C(C(CCC(=N)O)N=C(C(CCC(=O)O)N=C(C(CCC(=O)O)N=C(C(COP(=O)(O)O)N=C(C(CCC(=N)O)N=C(C(CC1=CC=CC=C1)N)O)O)O)O)O)O)O)O)O)O)O)O

> <PUBCHEM_CACTVS_TPSA>
1110

> <PUBCHEM_MONOISOTOPIC_WEIGHT>
2060.8211892

> <PUBCHEM_TOTAL_CHARGE>
0

> <PUBCHEM_HEAVY_ATOM_COUNT>
143

> <PUBCHEM_ATOM_DEF_STEREO_COUNT>
0

> <PUBCHEM_ATOM_UDEF_STEREO_COUNT>
17

> <PUBCHEM_BOND_DEF_STEREO_COUNT>
0

> <PUBCHEM_BOND_UDEF_STEREO_COUNT>
0

> <PUBCHEM_ISOTOPIC_ATOM_COUNT>
0

> <PUBCHEM_COMPONENT_COUNT>
1

> <PUBCHEM_CACTVS_TAUTO_COUNT>
1001

> <PUBCHEM_COORDINATE_TYPE>
1
5
255

> <PUBCHEM_BONDANNOTATIONS>
99  10  3
109  113  3
121  129  3
122  128  3
137  139  8
137  140  8
139  141  8
140  142  8
141  143  8
142  143  8
132  61  3
65  63  3
69  72  3
70  73  3
77  88  3
78  89  3
80  91  3
84  81  3
82  93  3
83  94  3
85  96  3
86  103  3
97  105  3

$$$$
