74950937
  -OEChem-10012202102D

150150  0     1  0  0  0  0  0999 V2000
    4.2690   -8.5950    0.0000 O   0  0  0  0  0  0  0  0  0  0  0  0
    6.0010   -8.5950    0.0000 O   0  0  0  0  0  0  0  0  0  0  0  0
    4.2690  -11.5950    0.0000 O   0  0  0  0  0  0  0  0  0  0  0  0
    2.5369  -10.5950    0.0000 O   0  0  0  0  0  0  0  0  0  0  0  0
    6.0010  -10.5950    0.0000 O   0  0  0  0  0  0  0  0  0  0  0  0
    2.5369   -7.5950    0.0000 O   0  0  0  0  0  0  0  0  0  0  0  0
    7.7331   -8.5950    0.0000 O   0  0  0  0  0  0  0  0  0  0  0  0
    8.5991   -6.0950    0.0000 O   0  0  0  0  0  0  0  0  0  0  0  0
    6.8671   -6.0950    0.0000 N   0  0  0  0  0  0  0  0  0  0  0  0
    4.2690  -10.5950    0.0000 C   0  0  3  0  0  0  0  0  0  0  0  0
    3.4030  -10.0950    0.0000 C   0  0  3  0  0  0  0  0  0  0  0  0
    5.1350  -10.0950    0.0000 C   0  0  3  0  0  0  0  0  0  0  0  0
    3.4030   -9.0950    0.0000 C   0  0  3  0  0  0  0  0  0  0  0  0
    5.1350   -9.0950    0.0000 C   0  0  3  0  0  0  0  0  0  0  0  0
    2.5369   -8.5950    0.0000 C   0  0  0  0  0  0  0  0  0  0  0  0
    6.0010   -7.5950    0.0000 C   0  0  0  0  0  0  0  0  0  0  0  0
    6.8671   -7.0950    0.0000 C   0  0  3  0  0  0  0  0  0  0  0  0
    7.7331   -7.5950    0.0000 C   0  0  3  0  0  0  0  0  0  0  0  0
   12.0632    1.9050    0.0000 C   0  0  0  0  0  0  0  0  0  0  0  0
   11.1972    1.4050    0.0000 C   0  0  0  0  0  0  0  0  0  0  0  0
   12.0632    2.9050    0.0000 C   0  0  0  0  0  0  0  0  0  0  0  0
   11.1972    0.4050    0.0000 C   0  0  0  0  0  0  0  0  0  0  0  0
   12.9292    3.4050    0.0000 C   0  0  0  0  0  0  0  0  0  0  0  0
   10.3312   -0.0950    0.0000 C   0  0  0  0  0  0  0  0  0  0  0  0
   12.9292    4.4050    0.0000 C   0  0  0  0  0  0  0  0  0  0  0  0
   10.3312   -1.0950    0.0000 C   0  0  0  0  0  0  0  0  0  0  0  0
   13.7953    4.9050    0.0000 C   0  0  0  0  0  0  0  0  0  0  0  0
    9.4651   -1.5950    0.0000 C   0  0  0  0  0  0  0  0  0  0  0  0
   13.7953    5.9050    0.0000 C   0  0  0  0  0  0  0  0  0  0  0  0
    9.4651   -2.5950    0.0000 C   0  0  0  0  0  0  0  0  0  0  0  0
    8.5991   -3.0950    0.0000 C   0  0  0  0  0  0  0  0  0  0  0  0
   14.6613    6.4050    0.0000 C   0  0  0  0  0  0  0  0  0  0  0  0
    8.5991   -4.0950    0.0000 C   0  0  0  0  0  0  0  0  0  0  0  0
   14.6613    7.4050    0.0000 C   0  0  0  0  0  0  0  0  0  0  0  0
    7.7331   -4.5950    0.0000 C   0  0  0  0  0  0  0  0  0  0  0  0
    7.7331   -5.5950    0.0000 C   0  0  0  0  0  0  0  0  0  0  0  0
    8.5991   -7.0950    0.0000 C   0  0  0  0  0  0  0  0  0  0  0  0
   15.5273    7.9050    0.0000 C   0  0  0  0  0  0  0  0  0  0  0  0
   15.5273    8.9050    0.0000 C   0  0  0  0  0  0  0  0  0  0  0  0
   12.9292   -7.5950    0.0000 C   0  0  0  0  0  0  0  0  0  0  0  0
   13.7953   -7.0950    0.0000 C   0  0  0  0  0  0  0  0  0  0  0  0
   12.0632   -7.0950    0.0000 C   0  0  0  0  0  0  0  0  0  0  0  0
   14.6613   -7.5950    0.0000 C   0  0  0  0  0  0  0  0  0  0  0  0
   11.1972   -7.5950    0.0000 C   0  0  0  0  0  0  0  0  0  0  0  0
   10.3312   -7.0950    0.0000 C   0  0  0  0  0  0  0  0  0  0  0  0
   15.5273   -7.0950    0.0000 C   0  0  0  0  0  0  0  0  0  0  0  0
    9.4651   -7.5950    0.0000 C   0  0  0  0  0  0  0  0  0  0  0  0
   16.3933   -7.5950    0.0000 C   0  0  0  0  0  0  0  0  0  0  0  0
   16.3933    9.4050    0.0000 C   0  0  0  0  0  0  0  0  0  0  0  0
   17.2594   -7.0950    0.0000 C   0  0  0  0  0  0  0  0  0  0  0  0
   16.3933   10.4050    0.0000 C   0  0  0  0  0  0  0  0  0  0  0  0
   18.1254   -7.5950    0.0000 C   0  0  0  0  0  0  0  0  0  0  0  0
   18.9914   -7.0950    0.0000 C   0  0  0  0  0  0  0  0  0  0  0  0
   17.2594   10.9050    0.0000 C   0  0  0  0  0  0  0  0  0  0  0  0
   19.8574   -7.5950    0.0000 C   0  0  0  0  0  0  0  0  0  0  0  0
   17.2594   11.9050    0.0000 C   0  0  0  0  0  0  0  0  0  0  0  0
   20.7235   -7.0950    0.0000 C   0  0  0  0  0  0  0  0  0  0  0  0
    3.7320  -10.9050    0.0000 H   0  0  0  0  0  0  0  0  0  0  0  0
    3.4030  -10.7150    0.0000 H   0  0  0  0  0  0  0  0  0  0  0  0
    5.1350  -10.7150    0.0000 H   0  0  0  0  0  0  0  0  0  0  0  0
    3.4030   -8.4750    0.0000 H   0  0  0  0  0  0  0  0  0  0  0  0
    5.1350   -8.4750    0.0000 H   0  0  0  0  0  0  0  0  0  0  0  0
    1.9264   -8.4873    0.0000 H   0  0  0  0  0  0  0  0  0  0  0  0
    2.3249   -9.1776    0.0000 H   0  0  0  0  0  0  0  0  0  0  0  0
    5.7890   -7.0124    0.0000 H   0  0  0  0  0  0  0  0  0  0  0  0
    5.3905   -7.7027    0.0000 H   0  0  0  0  0  0  0  0  0  0  0  0
    7.4040   -6.7850    0.0000 H   0  0  0  0  0  0  0  0  0  0  0  0
    3.7320  -11.9050    0.0000 H   0  0  0  0  0  0  0  0  0  0  0  0
    2.0000  -10.2850    0.0000 H   0  0  0  0  0  0  0  0  0  0  0  0
    6.5380  -10.2850    0.0000 H   0  0  0  0  0  0  0  0  0  0  0  0
    8.2700   -7.9050    0.0000 H   0  0  0  0  0  0  0  0  0  0  0  0
   12.2753    1.3224    0.0000 H   0  0  0  0  0  0  0  0  0  0  0  0
   12.6738    2.0127    0.0000 H   0  0  0  0  0  0  0  0  0  0  0  0
   10.9851    1.9876    0.0000 H   0  0  0  0  0  0  0  0  0  0  0  0
   10.5866    1.2973    0.0000 H   0  0  0  0  0  0  0  0  0  0  0  0
   11.8512    3.4876    0.0000 H   0  0  0  0  0  0  0  0  0  0  0  0
   11.4526    2.7973    0.0000 H   0  0  0  0  0  0  0  0  0  0  0  0
   11.4092   -0.1776    0.0000 H   0  0  0  0  0  0  0  0  0  0  0  0
   11.8078    0.5127    0.0000 H   0  0  0  0  0  0  0  0  0  0  0  0
   13.1413    2.8224    0.0000 H   0  0  0  0  0  0  0  0  0  0  0  0
   13.5398    3.5127    0.0000 H   0  0  0  0  0  0  0  0  0  0  0  0
   10.1191    0.4876    0.0000 H   0  0  0  0  0  0  0  0  0  0  0  0
    9.7206   -0.2027    0.0000 H   0  0  0  0  0  0  0  0  0  0  0  0
   12.7172    4.9876    0.0000 H   0  0  0  0  0  0  0  0  0  0  0  0
   12.3187    4.2973    0.0000 H   0  0  0  0  0  0  0  0  0  0  0  0
    6.3301   -5.7850    0.0000 H   0  0  0  0  0  0  0  0  0  0  0  0
   10.5432   -1.6776    0.0000 H   0  0  0  0  0  0  0  0  0  0  0  0
   10.9417   -0.9873    0.0000 H   0  0  0  0  0  0  0  0  0  0  0  0
   14.0073    4.3224    0.0000 H   0  0  0  0  0  0  0  0  0  0  0  0
   14.4058    5.0127    0.0000 H   0  0  0  0  0  0  0  0  0  0  0  0
    9.2531   -1.0124    0.0000 H   0  0  0  0  0  0  0  0  0  0  0  0
    8.8546   -1.7027    0.0000 H   0  0  0  0  0  0  0  0  0  0  0  0
   13.5832    6.4876    0.0000 H   0  0  0  0  0  0  0  0  0  0  0  0
   13.1847    5.7973    0.0000 H   0  0  0  0  0  0  0  0  0  0  0  0
    9.6772   -3.1776    0.0000 H   0  0  0  0  0  0  0  0  0  0  0  0
   10.0757   -2.4873    0.0000 H   0  0  0  0  0  0  0  0  0  0  0  0
    8.3871   -2.5124    0.0000 H   0  0  0  0  0  0  0  0  0  0  0  0
    7.9885   -3.2027    0.0000 H   0  0  0  0  0  0  0  0  0  0  0  0
   14.8733    5.8224    0.0000 H   0  0  0  0  0  0  0  0  0  0  0  0
   15.2719    6.5127    0.0000 H   0  0  0  0  0  0  0  0  0  0  0  0
    8.8112   -4.6776    0.0000 H   0  0  0  0  0  0  0  0  0  0  0  0
    9.2097   -3.9873    0.0000 H   0  0  0  0  0  0  0  0  0  0  0  0
    2.0000   -7.2850    0.0000 H   0  0  0  0  0  0  0  0  0  0  0  0
   14.4492    7.9876    0.0000 H   0  0  0  0  0  0  0  0  0  0  0  0
   14.0507    7.2973    0.0000 H   0  0  0  0  0  0  0  0  0  0  0  0
    7.5210   -4.0124    0.0000 H   0  0  0  0  0  0  0  0  0  0  0  0
    7.1225   -4.7027    0.0000 H   0  0  0  0  0  0  0  0  0  0  0  0
    8.5991   -6.4750    0.0000 H   0  0  0  0  0  0  0  0  0  0  0  0
   15.7394    7.3224    0.0000 H   0  0  0  0  0  0  0  0  0  0  0  0
   16.1379    8.0127    0.0000 H   0  0  0  0  0  0  0  0  0  0  0  0
   15.3153    9.4876    0.0000 H   0  0  0  0  0  0  0  0  0  0  0  0
   14.9167    8.7973    0.0000 H   0  0  0  0  0  0  0  0  0  0  0  0
   12.5307   -8.0700    0.0000 H   0  0  0  0  0  0  0  0  0  0  0  0
   13.3278   -8.0700    0.0000 H   0  0  0  0  0  0  0  0  0  0  0  0
   14.1938   -6.6200    0.0000 H   0  0  0  0  0  0  0  0  0  0  0  0
   13.3967   -6.6200    0.0000 H   0  0  0  0  0  0  0  0  0  0  0  0
   12.4617   -6.6200    0.0000 H   0  0  0  0  0  0  0  0  0  0  0  0
   11.6647   -6.6200    0.0000 H   0  0  0  0  0  0  0  0  0  0  0  0
   14.2628   -8.0700    0.0000 H   0  0  0  0  0  0  0  0  0  0  0  0
   15.0598   -8.0700    0.0000 H   0  0  0  0  0  0  0  0  0  0  0  0
   10.7987   -8.0700    0.0000 H   0  0  0  0  0  0  0  0  0  0  0  0
   11.5957   -8.0700    0.0000 H   0  0  0  0  0  0  0  0  0  0  0  0
   10.7297   -6.6200    0.0000 H   0  0  0  0  0  0  0  0  0  0  0  0
    9.9326   -6.6200    0.0000 H   0  0  0  0  0  0  0  0  0  0  0  0
   15.9258   -6.6200    0.0000 H   0  0  0  0  0  0  0  0  0  0  0  0
   15.1288   -6.6200    0.0000 H   0  0  0  0  0  0  0  0  0  0  0  0
    9.4651   -8.2150    0.0000 H   0  0  0  0  0  0  0  0  0  0  0  0
   15.9948   -8.0700    0.0000 H   0  0  0  0  0  0  0  0  0  0  0  0
   16.7919   -8.0700    0.0000 H   0  0  0  0  0  0  0  0  0  0  0  0
   16.6054    8.8224    0.0000 H   0  0  0  0  0  0  0  0  0  0  0  0
   17.0039    9.5127    0.0000 H   0  0  0  0  0  0  0  0  0  0  0  0
    8.2700   -8.9050    0.0000 H   0  0  0  0  0  0  0  0  0  0  0  0
   17.6579   -6.6200    0.0000 H   0  0  0  0  0  0  0  0  0  0  0  0
   16.8608   -6.6200    0.0000 H   0  0  0  0  0  0  0  0  0  0  0  0
   16.1813   10.9876    0.0000 H   0  0  0  0  0  0  0  0  0  0  0  0
   15.7828   10.2973    0.0000 H   0  0  0  0  0  0  0  0  0  0  0  0
   17.7269   -8.0700    0.0000 H   0  0  0  0  0  0  0  0  0  0  0  0
   18.5239   -8.0700    0.0000 H   0  0  0  0  0  0  0  0  0  0  0  0
   19.3899   -6.6200    0.0000 H   0  0  0  0  0  0  0  0  0  0  0  0
   18.5929   -6.6200    0.0000 H   0  0  0  0  0  0  0  0  0  0  0  0
   17.4714   10.3224    0.0000 H   0  0  0  0  0  0  0  0  0  0  0  0
   17.8699   11.0127    0.0000 H   0  0  0  0  0  0  0  0  0  0  0  0
   19.4589   -8.0700    0.0000 H   0  0  0  0  0  0  0  0  0  0  0  0
   20.2560   -8.0700    0.0000 H   0  0  0  0  0  0  0  0  0  0  0  0
   17.8794   11.9050    0.0000 H   0  0  0  0  0  0  0  0  0  0  0  0
   17.2594   12.5250    0.0000 H   0  0  0  0  0  0  0  0  0  0  0  0
   16.6394   11.9050    0.0000 H   0  0  0  0  0  0  0  0  0  0  0  0
   21.0335   -7.6319    0.0000 H   0  0  0  0  0  0  0  0  0  0  0  0
   21.2604   -6.7850    0.0000 H   0  0  0  0  0  0  0  0  0  0  0  0
   20.4135   -6.5581    0.0000 H   0  0  0  0  0  0  0  0  0  0  0  0
  1 13  1  0  0  0  0
  1 14  1  0  0  0  0
  2 14  1  0  0  0  0
  2 16  1  0  0  0  0
  3 10  1  0  0  0  0
  3 68  1  0  0  0  0
  4 11  1  0  0  0  0
  4 69  1  0  0  0  0
  5 12  1  0  0  0  0
  5 70  1  0  0  0  0
  6 15  1  0  0  0  0
  6103  1  0  0  0  0
  7 18  1  0  0  0  0
  7132  1  0  0  0  0
  8 36  2  0  0  0  0
  9 17  1  0  0  0  0
  9 36  1  0  0  0  0
  9 86  1  0  0  0  0
 10 11  1  0  0  0  0
 10 12  1  0  0  0  0
 10 58  1  0  0  0  0
 11 13  1  0  0  0  0
 11 59  1  0  0  0  0
 12 14  1  0  0  0  0
 12 60  1  0  0  0  0
 13 15  1  0  0  0  0
 13 61  1  0  0  0  0
 14 62  1  0  0  0  0
 15 63  1  0  0  0  0
 15 64  1  0  0  0  0
 16 17  1  0  0  0  0
 16 65  1  0  0  0  0
 16 66  1  0  0  0  0
 17 18  1  0  0  0  0
 17 67  1  0  0  0  0
 18 37  1  0  0  0  0
 18 71  1  0  0  0  0
 19 20  1  0  0  0  0
 19 21  1  0  0  0  0
 19 72  1  0  0  0  0
 19 73  1  0  0  0  0
 20 22  1  0  0  0  0
 20 74  1  0  0  0  0
 20 75  1  0  0  0  0
 21 23  1  0  0  0  0
 21 76  1  0  0  0  0
 21 77  1  0  0  0  0
 22 24  1  0  0  0  0
 22 78  1  0  0  0  0
 22 79  1  0  0  0  0
 23 25  1  0  0  0  0
 23 80  1  0  0  0  0
 23 81  1  0  0  0  0
 24 26  1  0  0  0  0
 24 82  1  0  0  0  0
 24 83  1  0  0  0  0
 25 27  1  0  0  0  0
 25 84  1  0  0  0  0
 25 85  1  0  0  0  0
 26 28  1  0  0  0  0
 26 87  1  0  0  0  0
 26 88  1  0  0  0  0
 27 29  1  0  0  0  0
 27 89  1  0  0  0  0
 27 90  1  0  0  0  0
 28 30  1  0  0  0  0
 28 91  1  0  0  0  0
 28 92  1  0  0  0  0
 29 32  1  0  0  0  0
 29 93  1  0  0  0  0
 29 94  1  0  0  0  0
 30 31  1  0  0  0  0
 30 95  1  0  0  0  0
 30 96  1  0  0  0  0
 31 33  1  0  0  0  0
 31 97  1  0  0  0  0
 31 98  1  0  0  0  0
 32 34  1  0  0  0  0
 32 99  1  0  0  0  0
 32100  1  0  0  0  0
 33 35  1  0  0  0  0
 33101  1  0  0  0  0
 33102  1  0  0  0  0
 34 38  1  0  0  0  0
 34104  1  0  0  0  0
 34105  1  0  0  0  0
 35 36  1  0  0  0  0
 35106  1  0  0  0  0
 35107  1  0  0  0  0
 37 47  2  3  0  0  0
 37108  1  0  0  0  0
 38 39  1  0  0  0  0
 38109  1  0  0  0  0
 38110  1  0  0  0  0
 39 49  1  0  0  0  0
 39111  1  0  0  0  0
 39112  1  0  0  0  0
 40 41  1  0  0  0  0
 40 42  1  0  0  0  0
 40113  1  0  0  0  0
 40114  1  0  0  0  0
 41 43  1  0  0  0  0
 41115  1  0  0  0  0
 41116  1  0  0  0  0
 42 44  1  0  0  0  0
 42117  1  0  0  0  0
 42118  1  0  0  0  0
 43 46  1  0  0  0  0
 43119  1  0  0  0  0
 43120  1  0  0  0  0
 44 45  1  0  0  0  0
 44121  1  0  0  0  0
 44122  1  0  0  0  0
 45 47  1  0  0  0  0
 45123  1  0  0  0  0
 45124  1  0  0  0  0
 46 48  1  0  0  0  0
 46125  1  0  0  0  0
 46126  1  0  0  0  0
 47127  1  0  0  0  0
 48 50  1  0  0  0  0
 48128  1  0  0  0  0
 48129  1  0  0  0  0
 49 51  1  0  0  0  0
 49130  1  0  0  0  0
 49131  1  0  0  0  0
 50 52  1  0  0  0  0
 50133  1  0  0  0  0
 50134  1  0  0  0  0
 51 54  1  0  0  0  0
 51135  1  0  0  0  0
 51136  1  0  0  0  0
 52 53  1  0  0  0  0
 52137  1  0  0  0  0
 52138  1  0  0  0  0
 53 55  1  0  0  0  0
 53139  1  0  0  0  0
 53140  1  0  0  0  0
 54 56  1  0  0  0  0
 54141  1  0  0  0  0
 54142  1  0  0  0  0
 55 57  1  0  0  0  0
 55143  1  0  0  0  0
 55144  1  0  0  0  0
 56145  1  0  0  0  0
 56146  1  0  0  0  0
 56147  1  0  0  0  0
 57148  1  0  0  0  0
 57149  1  0  0  0  0
 57150  1  0  0  0  0
M  END
> <PUBCHEM_COMPOUND_CID>
74950937

> <PUBCHEM_COMPOUND_CANONICALIZED>
1

> <PUBCHEM_CACTVS_COMPLEXITY>
906

> <PUBCHEM_CACTVS_HBOND_ACCEPTOR>
8

> <PUBCHEM_CACTVS_HBOND_DONOR>
6

> <PUBCHEM_CACTVS_ROTATABLE_BOND>
41

> <PUBCHEM_CACTVS_SUBSKEYS>
AAADcfB+PAAAAAAAAAAAAAAAAAAAAAAAAAAkAAAAAAAAAAAAAAAAHgAQCAAACDzxgAcCCALABgCIACFSEAAAAAAgAAAICIEIAAgTFBIAgQAnUAAFlgCfEAPY6IyAAAAAAAAAAAAAAAAAAAAAAAAAAAAAAA==

> <PUBCHEM_IUPAC_OPENEYE_NAME>
N-[2-hydroxy-1-[[3,4,5-trihydroxy-6-(hydroxymethyl)tetrahydropyran-2-yl]oxymethyl]heptadec-3-enyl]tetracosanamide

> <PUBCHEM_IUPAC_CAS_NAME>
N-[3-hydroxy-1-[[3,4,5-trihydroxy-6-(hydroxymethyl)-2-oxanyl]oxy]octadec-4-en-2-yl]tetracosanamide

> <PUBCHEM_IUPAC_NAME_MARKUP>
<I>N</I>-[3-hydroxy-1-[3,4,5-trihydroxy-6-(hydroxymethyl)oxan-2-yl]oxyoctadec-4-en-2-yl]tetracosanamide

> <PUBCHEM_IUPAC_NAME>
N-[3-hydroxy-1-[3,4,5-trihydroxy-6-(hydroxymethyl)oxan-2-yl]oxyoctadec-4-en-2-yl]tetracosanamide

> <PUBCHEM_IUPAC_SYSTEMATIC_NAME>
N-[1-[6-(hydroxymethyl)-3,4,5-tris(oxidanyl)oxan-2-yl]oxy-3-oxidanyl-octadec-4-en-2-yl]tetracosanamide

> <PUBCHEM_IUPAC_TRADITIONAL_NAME>
N-[2-hydroxy-1-[(3,4,5-trihydroxy-6-methylol-tetrahydropyran-2-yl)oxymethyl]heptadec-3-enyl]lignoceramide

> <PUBCHEM_IUPAC_INCHI>
InChI=1S/C48H93NO8/c1-3-5-7-9-11-13-15-17-18-19-20-21-22-23-24-26-28-30-32-34-36-38-44(52)49-41(40-56-48-47(55)46(54)45(53)43(39-50)57-48)42(51)37-35-33-31-29-27-25-16-14-12-10-8-6-4-2/h35,37,41-43,45-48,50-51,53-55H,3-34,36,38-40H2,1-2H3,(H,49,52)

> <PUBCHEM_IUPAC_INCHIKEY>
POQRWMRXUOPCLD-UHFFFAOYSA-N

> <PUBCHEM_XLOGP3_AA>
15.6

> <PUBCHEM_EXACT_MASS>
811.69011892

> <PUBCHEM_MOLECULAR_FORMULA>
C48H93NO8

> <PUBCHEM_MOLECULAR_WEIGHT>
812.3

> <PUBCHEM_OPENEYE_CAN_SMILES>
CCCCCCCCCCCCCCCCCCCCCCCC(=O)NC(COC1C(C(C(C(O1)CO)O)O)O)C(C=CCCCCCCCCCCCCC)O

> <PUBCHEM_OPENEYE_ISO_SMILES>
CCCCCCCCCCCCCCCCCCCCCCCC(=O)NC(COC1C(C(C(C(O1)CO)O)O)O)C(C=CCCCCCCCCCCCCC)O

> <PUBCHEM_CACTVS_TPSA>
149

> <PUBCHEM_MONOISOTOPIC_WEIGHT>
811.69011892

> <PUBCHEM_TOTAL_CHARGE>
0

> <PUBCHEM_HEAVY_ATOM_COUNT>
57

> <PUBCHEM_ATOM_DEF_STEREO_COUNT>
0

> <PUBCHEM_ATOM_UDEF_STEREO_COUNT>
7

> <PUBCHEM_BOND_DEF_STEREO_COUNT>
0

> <PUBCHEM_BOND_UDEF_STEREO_COUNT>
1

> <PUBCHEM_ISOTOPIC_ATOM_COUNT>
0

> <PUBCHEM_COMPONENT_COUNT>
1

> <PUBCHEM_CACTVS_TAUTO_COUNT>
-1

> <PUBCHEM_COORDINATE_TYPE>
1
5
255

> <PUBCHEM_BONDANNOTATIONS>
13  15  3
17  16  3
14  2  3
10  3  3
37  47  1
11  4  3
12  5  3
18  7  3

$$$$
