91915
  -OEChem-10012202122D

 48 49  0     1  0  0  0  0  0999 V2000
    2.3100    0.4518    0.0000 O   0  0  0  0  0  0  0  0  0  0  0  0
    3.3100   -2.5482    0.0000 O   0  0  0  0  0  0  0  0  0  0  0  0
    5.0420    0.4518    0.0000 C   0  0  3  0  0  0  0  0  0  0  0  0
    5.0420    1.4518    0.0000 C   0  0  3  0  0  0  0  0  0  0  0  0
    4.1760   -0.0482    0.0000 C   0  0  3  0  0  0  0  0  0  0  0  0
    5.9360    1.9865    0.0000 C   0  0  0  0  0  0  0  0  0  0  0  0
    3.3100    0.4518    0.0000 C   0  0  3  0  0  0  0  0  0  0  0  0
    5.9360   -0.0829    0.0000 C   0  0  0  0  0  0  0  0  0  0  0  0
    4.1760    1.9518    0.0000 C   0  0  0  0  0  0  0  0  0  0  0  0
    3.3100    1.4518    0.0000 C   0  0  0  0  0  0  0  0  0  0  0  0
    6.8421    1.4726    0.0000 C   0  0  0  0  0  0  0  0  0  0  0  0
    6.8421    0.4310    0.0000 C   0  0  0  0  0  0  0  0  0  0  0  0
    5.0420   -0.5482    0.0000 C   0  0  0  0  0  0  0  0  0  0  0  0
    4.1760   -1.0482    0.0000 C   0  0  0  0  0  0  0  0  0  0  0  0
    6.4260    2.8582    0.0000 C   0  0  0  0  0  0  0  0  0  0  0  0
    5.4260    2.8466    0.0000 C   0  0  0  0  0  0  0  0  0  0  0  0
    2.8100   -0.4142    0.0000 C   0  0  0  0  0  0  0  0  0  0  0  0
    3.3100   -1.5482    0.0000 C   0  0  0  0  0  0  0  0  0  0  0  0
    5.0373    2.0718    0.0000 H   0  0  0  0  0  0  0  0  0  0  0  0
    3.6391   -0.3582    0.0000 H   0  0  0  0  0  0  0  0  0  0  0  0
    5.5314   -0.5527    0.0000 H   0  0  0  0  0  0  0  0  0  0  0  0
    6.3296   -0.5619    0.0000 H   0  0  0  0  0  0  0  0  0  0  0  0
    4.5746    2.4267    0.0000 H   0  0  0  0  0  0  0  0  0  0  0  0
    3.7775    2.4267    0.0000 H   0  0  0  0  0  0  0  0  0  0  0  0
    3.0980    2.0344    0.0000 H   0  0  0  0  0  0  0  0  0  0  0  0
    2.6994    1.3441    0.0000 H   0  0  0  0  0  0  0  0  0  0  0  0
    7.4529    1.3665    0.0000 H   0  0  0  0  0  0  0  0  0  0  0  0
    7.0511    2.0563    0.0000 H   0  0  0  0  0  0  0  0  0  0  0  0
    7.0511   -0.1527    0.0000 H   0  0  0  0  0  0  0  0  0  0  0  0
    7.4529    0.5371    0.0000 H   0  0  0  0  0  0  0  0  0  0  0  0
    4.4220   -0.5482    0.0000 H   0  0  0  0  0  0  0  0  0  0  0  0
    5.0420   -1.1682    0.0000 H   0  0  0  0  0  0  0  0  0  0  0  0
    5.6620   -0.5482    0.0000 H   0  0  0  0  0  0  0  0  0  0  0  0
    4.3881   -1.6308    0.0000 H   0  0  0  0  0  0  0  0  0  0  0  0
    4.7866   -0.9405    0.0000 H   0  0  0  0  0  0  0  0  0  0  0  0
    6.9664    2.5544    0.0000 H   0  0  0  0  0  0  0  0  0  0  0  0
    6.7297    3.3987    0.0000 H   0  0  0  0  0  0  0  0  0  0  0  0
    5.8855    3.1620    0.0000 H   0  0  0  0  0  0  0  0  0  0  0  0
    5.9593    3.1628    0.0000 H   0  0  0  0  0  0  0  0  0  0  0  0
    5.1098    3.3800    0.0000 H   0  0  0  0  0  0  0  0  0  0  0  0
    4.8927    2.5304    0.0000 H   0  0  0  0  0  0  0  0  0  0  0  0
    2.2731   -0.1042    0.0000 H   0  0  0  0  0  0  0  0  0  0  0  0
    2.5000   -0.9512    0.0000 H   0  0  0  0  0  0  0  0  0  0  0  0
    3.3469   -0.7242    0.0000 H   0  0  0  0  0  0  0  0  0  0  0  0
    2.0000    0.9887    0.0000 H   0  0  0  0  0  0  0  0  0  0  0  0
    3.0980   -0.9656    0.0000 H   0  0  0  0  0  0  0  0  0  0  0  0
    2.6994   -1.6559    0.0000 H   0  0  0  0  0  0  0  0  0  0  0  0
    2.7731   -2.8582    0.0000 H   0  0  0  0  0  0  0  0  0  0  0  0
  1  7  1  0  0  0  0
  1 45  1  0  0  0  0
  2 18  1  0  0  0  0
  2 48  1  0  0  0  0
  3  4  1  0  0  0  0
  3  5  1  0  0  0  0
  3  8  1  0  0  0  0
  3 13  1  0  0  0  0
  4  6  1  0  0  0  0
  4  9  1  0  0  0  0
  4 19  1  0  0  0  0
  5  7  1  0  0  0  0
  5 14  1  0  0  0  0
  5 20  1  0  0  0  0
  6 11  1  0  0  0  0
  6 15  1  0  0  0  0
  6 16  1  0  0  0  0
  7 10  1  0  0  0  0
  7 17  1  0  0  0  0
  8 12  1  0  0  0  0
  8 21  1  0  0  0  0
  8 22  1  0  0  0  0
  9 10  1  0  0  0  0
  9 23  1  0  0  0  0
  9 24  1  0  0  0  0
 10 25  1  0  0  0  0
 10 26  1  0  0  0  0
 11 12  1  0  0  0  0
 11 27  1  0  0  0  0
 11 28  1  0  0  0  0
 12 29  1  0  0  0  0
 12 30  1  0  0  0  0
 13 31  1  0  0  0  0
 13 32  1  0  0  0  0
 13 33  1  0  0  0  0
 14 18  1  0  0  0  0
 14 34  1  0  0  0  0
 14 35  1  0  0  0  0
 15 36  1  0  0  0  0
 15 37  1  0  0  0  0
 15 38  1  0  0  0  0
 16 39  1  0  0  0  0
 16 40  1  0  0  0  0
 16 41  1  0  0  0  0
 17 42  1  0  0  0  0
 17 43  1  0  0  0  0
 17 44  1  0  0  0  0
 18 46  1  0  0  0  0
 18 47  1  0  0  0  0
M  END
> <PUBCHEM_COMPOUND_CID>
91915

> <PUBCHEM_COMPOUND_CANONICALIZED>
1

> <PUBCHEM_CACTVS_COMPLEXITY>
312

> <PUBCHEM_CACTVS_HBOND_ACCEPTOR>
2

> <PUBCHEM_CACTVS_HBOND_DONOR>
2

> <PUBCHEM_CACTVS_ROTATABLE_BOND>
2

> <PUBCHEM_CACTVS_SUBSKEYS>
AAADceB4MAAAAAAAAAAAAAAAAAAAAAAAAAAwYAAAAAAAAADAAAAAGgAACAAAD0SggAICAAAAAgAAAAAAAAAAAAAAAAAAAAAAAAAAEAIAAAAAQAAEAAAAAAHAwPAPgAAAAAAAAADAAAYAADAAAAAAAAAAAA==

> <PUBCHEM_IUPAC_OPENEYE_NAME>
1-(2-hydroxyethyl)-2,5,5,8a-tetramethyl-decalin-2-ol

> <PUBCHEM_IUPAC_CAS_NAME>
1-(2-hydroxyethyl)-2,5,5,8a-tetramethyl-3,4,4a,6,7,8-hexahydro-1H-naphthalen-2-ol

> <PUBCHEM_IUPAC_NAME_MARKUP>
1-(2-hydroxyethyl)-2,5,5,8<I>a</I>-tetramethyl-3,4,4<I>a</I>,6,7,8-hexahydro-1<I>H</I>-naphthalen-2-ol

> <PUBCHEM_IUPAC_NAME>
1-(2-hydroxyethyl)-2,5,5,8a-tetramethyl-3,4,4a,6,7,8-hexahydro-1H-naphthalen-2-ol

> <PUBCHEM_IUPAC_SYSTEMATIC_NAME>
1-(2-hydroxyethyl)-2,5,5,8a-tetramethyl-3,4,4a,6,7,8-hexahydro-1H-naphthalen-2-ol

> <PUBCHEM_IUPAC_TRADITIONAL_NAME>
1-(2-hydroxyethyl)-2,5,5,8a-tetramethyl-decalin-2-ol

> <PUBCHEM_IUPAC_INCHI>
InChI=1S/C16H30O2/c1-14(2)8-5-9-15(3)12(14)6-10-16(4,18)13(15)7-11-17/h12-13,17-18H,5-11H2,1-4H3

> <PUBCHEM_IUPAC_INCHIKEY>
AIALTZSQORJYNJ-UHFFFAOYSA-N

> <PUBCHEM_XLOGP3_AA>
3.7

> <PUBCHEM_EXACT_MASS>
254.224580195

> <PUBCHEM_MOLECULAR_FORMULA>
C16H30O2

> <PUBCHEM_MOLECULAR_WEIGHT>
254.41

> <PUBCHEM_OPENEYE_CAN_SMILES>
CC1(CCCC2(C1CCC(C2CCO)(C)O)C)C

> <PUBCHEM_OPENEYE_ISO_SMILES>
CC1(CCCC2(C1CCC(C2CCO)(C)O)C)C

> <PUBCHEM_CACTVS_TPSA>
40.5

> <PUBCHEM_MONOISOTOPIC_WEIGHT>
254.224580195

> <PUBCHEM_TOTAL_CHARGE>
0

> <PUBCHEM_HEAVY_ATOM_COUNT>
18

> <PUBCHEM_ATOM_DEF_STEREO_COUNT>
0

> <PUBCHEM_ATOM_UDEF_STEREO_COUNT>
4

> <PUBCHEM_BOND_DEF_STEREO_COUNT>
0

> <PUBCHEM_BOND_UDEF_STEREO_COUNT>
0

> <PUBCHEM_ISOTOPIC_ATOM_COUNT>
0

> <PUBCHEM_COMPONENT_COUNT>
1

> <PUBCHEM_CACTVS_TAUTO_COUNT>
1

> <PUBCHEM_COORDINATE_TYPE>
1
5
255

> <PUBCHEM_BONDANNOTATIONS>
7  1  3
3  13  3
4  9  3
5  14  3

$$$$
