92783
  -OEChem-10012202112D

 51 53  0     1  0  0  0  0  0999 V2000
    7.3180    1.9158    0.0000 O   0  0  0  0  0  0  0  0  0  0  0  0
    3.8000   -1.1293    0.0000 C   0  0  2  0  0  0  0  0  0  0  0  0
    3.8000   -0.1293    0.0000 C   0  0  2  0  0  0  0  0  0  0  0  0
    2.9061   -1.6640    0.0000 C   0  0  0  0  0  0  0  0  0  0  0  0
    2.9061    0.4053    0.0000 C   0  0  0  0  0  0  0  0  0  0  0  0
    2.0000   -1.1502    0.0000 C   0  0  0  0  0  0  0  0  0  0  0  0
    4.6660   -1.6293    0.0000 C   0  0  0  0  0  0  0  0  0  0  0  0
    2.0000   -0.1085    0.0000 C   0  0  0  0  0  0  0  0  0  0  0  0
    4.6660    0.3707    0.0000 C   0  0  0  0  0  0  0  0  0  0  0  0
    5.5321   -1.1293    0.0000 C   0  0  0  0  0  0  0  0  0  0  0  0
    3.8000    0.8707    0.0000 C   0  0  0  0  0  0  0  0  0  0  0  0
    5.5321   -0.1293    0.0000 C   0  0  0  0  0  0  0  0  0  0  0  0
    2.4161   -2.5358    0.0000 C   0  0  0  0  0  0  0  0  0  0  0  0
    3.4160   -2.5242    0.0000 C   0  0  0  0  0  0  0  0  0  0  0  0
    4.6500    1.4122    0.0000 C   0  0  0  0  0  0  0  0  0  0  0  0
    6.4421    0.3775    0.0000 C   0  0  0  0  0  0  0  0  0  0  0  0
    7.3022   -0.1325    0.0000 C   0  0  0  0  0  0  0  0  0  0  0  0
    6.4501    1.4191    0.0000 C   0  0  0  0  0  0  0  0  0  0  0  0
    5.5480    1.9399    0.0000 C   0  0  0  0  0  0  0  0  0  0  0  0
    8.1740    0.3575    0.0000 C   0  0  0  0  0  0  0  0  0  0  0  0
    7.2907   -1.1324    0.0000 C   0  0  0  0  0  0  0  0  0  0  0  0
    3.8066   -1.9793    0.0000 H   0  0  0  0  0  0  0  0  0  0  0  0
    3.3107    0.8751    0.0000 H   0  0  0  0  0  0  0  0  0  0  0  0
    2.5124    0.8843    0.0000 H   0  0  0  0  0  0  0  0  0  0  0  0
    1.3891   -1.0441    0.0000 H   0  0  0  0  0  0  0  0  0  0  0  0
    1.7909   -1.7338    0.0000 H   0  0  0  0  0  0  0  0  0  0  0  0
    4.2675   -2.1043    0.0000 H   0  0  0  0  0  0  0  0  0  0  0  0
    5.0646   -2.1043    0.0000 H   0  0  0  0  0  0  0  0  0  0  0  0
    1.7909    0.4752    0.0000 H   0  0  0  0  0  0  0  0  0  0  0  0
    1.3891   -0.2146    0.0000 H   0  0  0  0  0  0  0  0  0  0  0  0
    5.7441   -1.7120    0.0000 H   0  0  0  0  0  0  0  0  0  0  0  0
    6.1426   -1.0217    0.0000 H   0  0  0  0  0  0  0  0  0  0  0  0
    4.4200    0.8707    0.0000 H   0  0  0  0  0  0  0  0  0  0  0  0
    3.8000    1.4907    0.0000 H   0  0  0  0  0  0  0  0  0  0  0  0
    3.1800    0.8707    0.0000 H   0  0  0  0  0  0  0  0  0  0  0  0
    1.8756   -2.2320    0.0000 H   0  0  0  0  0  0  0  0  0  0  0  0
    2.1123   -3.0762    0.0000 H   0  0  0  0  0  0  0  0  0  0  0  0
    2.9566   -2.8395    0.0000 H   0  0  0  0  0  0  0  0  0  0  0  0
    2.8827   -2.8404    0.0000 H   0  0  0  0  0  0  0  0  0  0  0  0
    3.7322   -3.0575    0.0000 H   0  0  0  0  0  0  0  0  0  0  0  0
    3.9494   -2.2080    0.0000 H   0  0  0  0  0  0  0  0  0  0  0  0
    4.1095    1.7159    0.0000 H   0  0  0  0  0  0  0  0  0  0  0  0
    6.7618   -0.4362    0.0000 H   0  0  0  0  0  0  0  0  0  0  0  0
    5.5456    2.5599    0.0000 H   0  0  0  0  0  0  0  0  0  0  0  0
    8.4778   -0.1830    0.0000 H   0  0  0  0  0  0  0  0  0  0  0  0
    8.7145    0.6612    0.0000 H   0  0  0  0  0  0  0  0  0  0  0  0
    7.8702    0.8980    0.0000 H   0  0  0  0  0  0  0  0  0  0  0  0
    6.6707   -1.1252    0.0000 H   0  0  0  0  0  0  0  0  0  0  0  0
    7.2835   -1.7524    0.0000 H   0  0  0  0  0  0  0  0  0  0  0  0
    7.9106   -1.1396    0.0000 H   0  0  0  0  0  0  0  0  0  0  0  0
    7.3204    2.5358    0.0000 H   0  0  0  0  0  0  0  0  0  0  0  0
  1 18  1  0  0  0  0
  1 51  1  0  0  0  0
  2  3  1  0  0  0  0
  2  4  1  0  0  0  0
  2  7  1  0  0  0  0
  2 22  1  6  0  0  0
  3  5  1  0  0  0  0
  3  9  1  0  0  0  0
  3 11  1  1  0  0  0
  4  6  1  0  0  0  0
  4 13  1  0  0  0  0
  4 14  1  0  0  0  0
  5  8  1  0  0  0  0
  5 23  1  0  0  0  0
  5 24  1  0  0  0  0
  6  8  1  0  0  0  0
  6 25  1  0  0  0  0
  6 26  1  0  0  0  0
  7 10  1  0  0  0  0
  7 27  1  0  0  0  0
  7 28  1  0  0  0  0
  8 29  1  0  0  0  0
  8 30  1  0  0  0  0
  9 12  2  0  0  0  0
  9 15  1  0  0  0  0
 10 12  1  0  0  0  0
 10 31  1  0  0  0  0
 10 32  1  0  0  0  0
 11 33  1  0  0  0  0
 11 34  1  0  0  0  0
 11 35  1  0  0  0  0
 12 16  1  0  0  0  0
 13 36  1  0  0  0  0
 13 37  1  0  0  0  0
 13 38  1  0  0  0  0
 14 39  1  0  0  0  0
 14 40  1  0  0  0  0
 14 41  1  0  0  0  0
 15 19  2  0  0  0  0
 15 42  1  0  0  0  0
 16 17  1  0  0  0  0
 16 18  2  0  0  0  0
 17 20  1  0  0  0  0
 17 21  1  0  0  0  0
 17 43  1  0  0  0  0
 18 19  1  0  0  0  0
 19 44  1  0  0  0  0
 20 45  1  0  0  0  0
 20 46  1  0  0  0  0
 20 47  1  0  0  0  0
 21 48  1  0  0  0  0
 21 49  1  0  0  0  0
 21 50  1  0  0  0  0
M  END
> <PUBCHEM_COMPOUND_CID>
92783

> <PUBCHEM_COMPOUND_CANONICALIZED>
1

> <PUBCHEM_CACTVS_COMPLEXITY>
385

> <PUBCHEM_CACTVS_HBOND_ACCEPTOR>
1

> <PUBCHEM_CACTVS_HBOND_DONOR>
1

> <PUBCHEM_CACTVS_ROTATABLE_BOND>
1

> <PUBCHEM_CACTVS_SUBSKEYS>
AAADceB4IAAAAAAAAAAAAAAAAAAAAAAAAAAwYMAAAAAAAADBAAAAGgAACAAADwSAmAAyBoAAAgCAAiBCAAACAAAgIAAIiAAGCIgIJiKCEBKAcAAkwBEImAeAwPAPoAADAAAYAADAAAYAADAAAAAAAAAAAA==

> <PUBCHEM_IUPAC_OPENEYE_NAME>
(4bS,8aS)-1-isopropyl-4b,8,8-trimethyl-5,6,7,8a,9,10-hexahydrophenanthren-2-ol

> <PUBCHEM_IUPAC_CAS_NAME>
(4bS,8aS)-4b,8,8-trimethyl-1-propan-2-yl-5,6,7,8a,9,10-hexahydrophenanthren-2-ol

> <PUBCHEM_IUPAC_NAME_MARKUP>
(4<I>b</I><I>S</I>,8<I>a</I><I>S</I>)-4<I>b</I>,8,8-trimethyl-1-propan-2-yl-5,6,7,8<I>a</I>,9,10-hexahydrophenanthren-2-ol

> <PUBCHEM_IUPAC_NAME>
(4bS,8aS)-4b,8,8-trimethyl-1-propan-2-yl-5,6,7,8a,9,10-hexahydrophenanthren-2-ol

> <PUBCHEM_IUPAC_SYSTEMATIC_NAME>
(4bS,8aS)-4b,8,8-trimethyl-1-propan-2-yl-5,6,7,8a,9,10-hexahydrophenanthren-2-ol

> <PUBCHEM_IUPAC_TRADITIONAL_NAME>
(4bS,8aS)-1-isopropyl-4b,8,8-trimethyl-5,6,7,8a,9,10-hexahydrophenanthren-2-ol

> <PUBCHEM_IUPAC_INCHI>
InChI=1S/C20H30O/c1-13(2)18-14-7-10-17-19(3,4)11-6-12-20(17,5)15(14)8-9-16(18)21/h8-9,13,17,21H,6-7,10-12H2,1-5H3/t17-,20+/m0/s1

> <PUBCHEM_IUPAC_INCHIKEY>
ZRVDANDJSTYELM-FXAWDEMLSA-N

> <PUBCHEM_XLOGP3_AA>
6.7

> <PUBCHEM_EXACT_MASS>
286.229665576

> <PUBCHEM_MOLECULAR_FORMULA>
C20H30O

> <PUBCHEM_MOLECULAR_WEIGHT>
286.5

> <PUBCHEM_OPENEYE_CAN_SMILES>
CC(C)C1=C(C=CC2=C1CCC3C2(CCCC3(C)C)C)O

> <PUBCHEM_OPENEYE_ISO_SMILES>
CC(C)C1=C(C=CC2=C1CC[C@@H]3[C@@]2(CCCC3(C)C)C)O

> <PUBCHEM_CACTVS_TPSA>
20.2

> <PUBCHEM_MONOISOTOPIC_WEIGHT>
286.229665576

> <PUBCHEM_TOTAL_CHARGE>
0

> <PUBCHEM_HEAVY_ATOM_COUNT>
21

> <PUBCHEM_ATOM_DEF_STEREO_COUNT>
2

> <PUBCHEM_ATOM_UDEF_STEREO_COUNT>
0

> <PUBCHEM_BOND_DEF_STEREO_COUNT>
0

> <PUBCHEM_BOND_UDEF_STEREO_COUNT>
0

> <PUBCHEM_ISOTOPIC_ATOM_COUNT>
0

> <PUBCHEM_COMPONENT_COUNT>
1

> <PUBCHEM_CACTVS_TAUTO_COUNT>
-1

> <PUBCHEM_COORDINATE_TYPE>
1
5
255

> <PUBCHEM_BONDANNOTATIONS>
12  16  8
15  19  8
16  18  8
18  19  8
2  22  6
3  11  5
9  12  8
9  15  8

$$$$
