9848024
  -OEChem-10012202132D

 74 77  0     1  0  0  0  0  0999 V2000
    6.0010   -1.2719    0.0000 O   0  0  0  0  0  0  0  0  0  0  0  0
    4.2690   -1.2719    0.0000 O   0  0  0  0  0  0  0  0  0  0  0  0
    6.0010   -3.2719    0.0000 O   0  0  0  0  0  0  0  0  0  0  0  0
   12.9561    3.3073    0.0000 O   0  0  0  0  0  0  0  0  0  0  0  0
    4.2690   -4.2719    0.0000 O   0  0  0  0  0  0  0  0  0  0  0  0
    2.5369   -3.2719    0.0000 O   0  0  0  0  0  0  0  0  0  0  0  0
   11.7107    4.5819    0.0000 O   0  0  0  0  0  0  0  0  0  0  0  0
    2.5369   -0.2719    0.0000 O   0  0  0  0  0  0  0  0  0  0  0  0
    8.3671    1.0942    0.0000 C   0  0  2  0  0  0  0  0  0  0  0  0
    7.3671    1.0942    0.0000 C   0  0  1  0  0  0  0  0  0  0  0  0
    6.8671    0.2281    0.0000 C   0  0  1  0  0  0  0  0  0  0  0  0
    8.9017    1.9881    0.0000 C   0  0  1  0  0  0  0  0  0  0  0  0
    8.8671    0.2281    0.0000 C   0  0  0  0  0  0  0  0  0  0  0  0
    6.8324    1.9881    0.0000 C   0  0  0  0  0  0  0  0  0  0  0  0
    7.3671   -0.6379    0.0000 C   0  0  0  0  0  0  0  0  0  0  0  0
    8.3671   -0.6379    0.0000 C   0  0  0  0  0  0  0  0  0  0  0  0
    9.3671    1.0942    0.0000 C   0  0  0  0  0  0  0  0  0  0  0  0
    7.3462    2.8941    0.0000 C   0  0  0  0  0  0  0  0  0  0  0  0
    8.3879    2.8941    0.0000 C   0  0  0  0  0  0  0  0  0  0  0  0
    6.0010   -0.2719    0.0000 C   0  0  0  0  0  0  0  0  0  0  0  0
    6.0010    0.7281    0.0000 C   0  0  0  0  0  0  0  0  0  0  0  0
    9.9017    1.9765    0.0000 C   0  0  0  0  0  0  0  0  0  0  0  0
   10.4116    2.8367    0.0000 C   0  0  0  0  0  0  0  0  0  0  0  0
    8.8912    3.7582    0.0000 C   0  0  0  0  0  0  0  0  0  0  0  0
    5.1350   -1.7719    0.0000 C   0  0  2  0  0  0  0  0  0  0  0  0
   11.4116    2.8252    0.0000 C   0  0  0  0  0  0  0  0  0  0  0  0
    5.1350   -2.7719    0.0000 C   0  0  1  0  0  0  0  0  0  0  0  0
    4.2690   -3.2719    0.0000 C   0  0  2  0  0  0  0  0  0  0  0  0
    3.4030   -1.7719    0.0000 C   0  0  1  0  0  0  0  0  0  0  0  0
    3.4030   -2.7719    0.0000 C   0  0  1  0  0  0  0  0  0  0  0  0
   11.9900    2.0094    0.0000 C   0  0  0  0  0  0  0  0  0  0  0  0
   12.0087    3.6273    0.0000 C   0  0  0  0  0  0  0  0  0  0  0  0
   12.9445    2.3074    0.0000 C   0  0  0  0  0  0  0  0  0  0  0  0
    2.5369   -1.2719    0.0000 C   0  0  0  0  0  0  0  0  0  0  0  0
    6.5171    1.0876    0.0000 H   0  0  0  0  0  0  0  0  0  0  0  0
    9.2169    2.5220    0.0000 H   0  0  0  0  0  0  0  0  0  0  0  0
    9.3420   -0.1704    0.0000 H   0  0  0  0  0  0  0  0  0  0  0  0
    9.3420    0.6266    0.0000 H   0  0  0  0  0  0  0  0  0  0  0  0
    6.3534    2.3817    0.0000 H   0  0  0  0  0  0  0  0  0  0  0  0
    6.3626    1.5835    0.0000 H   0  0  0  0  0  0  0  0  0  0  0  0
    6.7844   -0.8500    0.0000 H   0  0  0  0  0  0  0  0  0  0  0  0
    7.4747   -1.2485    0.0000 H   0  0  0  0  0  0  0  0  0  0  0  0
    8.2594   -1.2485    0.0000 H   0  0  0  0  0  0  0  0  0  0  0  0
    8.9497   -0.8500    0.0000 H   0  0  0  0  0  0  0  0  0  0  0  0
    9.3671    0.4741    0.0000 H   0  0  0  0  0  0  0  0  0  0  0  0
    9.9871    1.0942    0.0000 H   0  0  0  0  0  0  0  0  0  0  0  0
    9.3671    1.7142    0.0000 H   0  0  0  0  0  0  0  0  0  0  0  0
    7.4523    3.5050    0.0000 H   0  0  0  0  0  0  0  0  0  0  0  0
    6.7626    3.1032    0.0000 H   0  0  0  0  0  0  0  0  0  0  0  0
    5.7890    0.3107    0.0000 H   0  0  0  0  0  0  0  0  0  0  0  0
    5.3905   -0.3795    0.0000 H   0  0  0  0  0  0  0  0  0  0  0  0
    6.3110    1.2651    0.0000 H   0  0  0  0  0  0  0  0  0  0  0  0
    5.4641    1.0381    0.0000 H   0  0  0  0  0  0  0  0  0  0  0  0
    5.6910    0.1912    0.0000 H   0  0  0  0  0  0  0  0  0  0  0  0
    9.7869    1.3672    0.0000 H   0  0  0  0  0  0  0  0  0  0  0  0
   10.4818    1.7578    0.0000 H   0  0  0  0  0  0  0  0  0  0  0  0
   10.5264    3.4460    0.0000 H   0  0  0  0  0  0  0  0  0  0  0  0
    9.8315    3.0555    0.0000 H   0  0  0  0  0  0  0  0  0  0  0  0
    9.5112    3.7559    0.0000 H   0  0  0  0  0  0  0  0  0  0  0  0
    8.5833    4.2964    0.0000 H   0  0  0  0  0  0  0  0  0  0  0  0
    5.1350   -1.1519    0.0000 H   0  0  0  0  0  0  0  0  0  0  0  0
    5.1350   -3.3919    0.0000 H   0  0  0  0  0  0  0  0  0  0  0  0
    3.7320   -3.5819    0.0000 H   0  0  0  0  0  0  0  0  0  0  0  0
    3.4030   -1.1519    0.0000 H   0  0  0  0  0  0  0  0  0  0  0  0
    3.4030   -3.3919    0.0000 H   0  0  0  0  0  0  0  0  0  0  0  0
   11.7916    1.4220    0.0000 H   0  0  0  0  0  0  0  0  0  0  0  0
   13.0664    1.6995    0.0000 H   0  0  0  0  0  0  0  0  0  0  0  0
   13.5618    2.3651    0.0000 H   0  0  0  0  0  0  0  0  0  0  0  0
    6.5380   -2.9619    0.0000 H   0  0  0  0  0  0  0  0  0  0  0  0
    1.9264   -1.1642    0.0000 H   0  0  0  0  0  0  0  0  0  0  0  0
    2.3249   -1.8545    0.0000 H   0  0  0  0  0  0  0  0  0  0  0  0
    3.7320   -4.5819    0.0000 H   0  0  0  0  0  0  0  0  0  0  0  0
    2.0000   -2.9619    0.0000 H   0  0  0  0  0  0  0  0  0  0  0  0
    2.0000    0.0381    0.0000 H   0  0  0  0  0  0  0  0  0  0  0  0
  1 20  1  0  0  0  0
 25  1  1  1  0  0  0
  2 25  1  0  0  0  0
  2 29  1  0  0  0  0
 27  3  1  6  0  0  0
  3 69  1  0  0  0  0
  4 32  1  0  0  0  0
  4 33  1  0  0  0  0
 28  5  1  1  0  0  0
  5 72  1  0  0  0  0
 30  6  1  6  0  0  0
  6 73  1  0  0  0  0
  7 32  2  0  0  0  0
  8 34  1  0  0  0  0
  8 74  1  0  0  0  0
  9 10  1  0  0  0  0
  9 12  1  0  0  0  0
  9 13  1  0  0  0  0
  9 17  1  1  0  0  0
 10 11  1  0  0  0  0
 10 14  1  0  0  0  0
 10 35  1  6  0  0  0
 11 15  1  0  0  0  0
 11 20  1  0  0  0  0
 11 21  1  6  0  0  0
 12 19  1  0  0  0  0
 12 22  1  1  0  0  0
 12 36  1  0  0  0  0
 13 16  1  0  0  0  0
 13 37  1  0  0  0  0
 13 38  1  0  0  0  0
 14 18  1  0  0  0  0
 14 39  1  0  0  0  0
 14 40  1  0  0  0  0
 15 16  1  0  0  0  0
 15 41  1  0  0  0  0
 15 42  1  0  0  0  0
 16 43  1  0  0  0  0
 16 44  1  0  0  0  0
 17 45  1  0  0  0  0
 17 46  1  0  0  0  0
 17 47  1  0  0  0  0
 18 19  1  0  0  0  0
 18 48  1  0  0  0  0
 18 49  1  0  0  0  0
 19 24  2  0  0  0  0
 20 50  1  0  0  0  0
 20 51  1  0  0  0  0
 21 52  1  0  0  0  0
 21 53  1  0  0  0  0
 21 54  1  0  0  0  0
 22 23  1  0  0  0  0
 22 55  1  0  0  0  0
 22 56  1  0  0  0  0
 23 26  1  0  0  0  0
 23 57  1  0  0  0  0
 23 58  1  0  0  0  0
 24 59  1  0  0  0  0
 24 60  1  0  0  0  0
 25 27  1  0  0  0  0
 25 61  1  0  0  0  0
 26 31  2  0  0  0  0
 26 32  1  0  0  0  0
 27 28  1  0  0  0  0
 27 62  1  0  0  0  0
 28 30  1  0  0  0  0
 28 63  1  0  0  0  0
 29 30  1  0  0  0  0
 29 34  1  1  0  0  0
 29 64  1  0  0  0  0
 30 65  1  0  0  0  0
 31 33  1  0  0  0  0
 31 66  1  0  0  0  0
 33 67  1  0  0  0  0
 33 68  1  0  0  0  0
 34 70  1  0  0  0  0
 34 71  1  0  0  0  0
M  END
> <PUBCHEM_COMPOUND_CID>
9848024

> <PUBCHEM_COMPOUND_CANONICALIZED>
1

> <PUBCHEM_CACTVS_COMPLEXITY>
811

> <PUBCHEM_CACTVS_HBOND_ACCEPTOR>
8

> <PUBCHEM_CACTVS_HBOND_DONOR>
4

> <PUBCHEM_CACTVS_ROTATABLE_BOND>
7

> <PUBCHEM_CACTVS_SUBSKEYS>
AAADcfB4PAAAAAAAAAAAAAAAAAAAAQAAAAA0YIAAAAAAAADAAAAAGgAACAAADxSwgAMCCAAABgCIAiDSCAAAAAAgAAAACAEAAEgRFBIAIQAiUAAFgAAPIYPI6PyPgAAAAAAAAAAAAAQAACAAAAAAAAAAAA==

> <PUBCHEM_IUPAC_OPENEYE_NAME>
4-[2-[(1R,4aS,5R,8aS)-5,8a-dimethyl-2-methylene-5-[[(2R,3R,4S,5S,6R)-3,4,5-trihydroxy-6-(hydroxymethyl)tetrahydropyran-2-yl]oxymethyl]decalin-1-yl]ethyl]-2H-furan-5-one

> <PUBCHEM_IUPAC_CAS_NAME>
4-[2-[(1R,4aS,5R,8aS)-5,8a-dimethyl-2-methylene-5-[[(2R,3R,4S,5S,6R)-3,4,5-trihydroxy-6-(hydroxymethyl)-2-oxanyl]oxymethyl]-3,4,4a,6,7,8-hexahydro-1H-naphthalen-1-yl]ethyl]-2H-furan-5-one

> <PUBCHEM_IUPAC_NAME_MARKUP>
4-[2-[(1<I>R</I>,4<I>a</I><I>S</I>,5<I>R</I>,8<I>a</I><I>S</I>)-5,8<I>a</I>-dimethyl-2-methylidene-5-[[(2<I>R</I>,3<I>R</I>,4<I>S</I>,5<I>S</I>,6<I>R</I>)-3,4,5-trihydroxy-6-(hydroxymethyl)oxan-2-yl]oxymethyl]-3,4,4<I>a</I>,6,7,8-hexahydro-1<I>H</I>-naphthalen-1-yl]ethyl]-2<I>H</I>-furan-5-one

> <PUBCHEM_IUPAC_NAME>
4-[2-[(1R,4aS,5R,8aS)-5,8a-dimethyl-2-methylidene-5-[[(2R,3R,4S,5S,6R)-3,4,5-trihydroxy-6-(hydroxymethyl)oxan-2-yl]oxymethyl]-3,4,4a,6,7,8-hexahydro-1H-naphthalen-1-yl]ethyl]-2H-furan-5-one

> <PUBCHEM_IUPAC_SYSTEMATIC_NAME>
4-[2-[(1R,4aS,5R,8aS)-5-[[(2R,3R,4S,5S,6R)-6-(hydroxymethyl)-3,4,5-tris(oxidanyl)oxan-2-yl]oxymethyl]-5,8a-dimethyl-2-methylidene-3,4,4a,6,7,8-hexahydro-1H-naphthalen-1-yl]ethyl]-2H-furan-5-one

> <PUBCHEM_IUPAC_TRADITIONAL_NAME>
4-[2-[(1R,4aS,5R,8aS)-5,8a-dimethyl-2-methylene-5-[[(2R,3R,4S,5S,6R)-3,4,5-trihydroxy-6-methylol-tetrahydropyran-2-yl]oxymethyl]decalin-1-yl]ethyl]-2H-furan-5-one

> <PUBCHEM_IUPAC_INCHI>
InChI=1S/C26H40O8/c1-15-5-8-19-25(2,14-33-24-22(30)21(29)20(28)18(13-27)34-24)10-4-11-26(19,3)17(15)7-6-16-9-12-32-23(16)31/h9,17-22,24,27-30H,1,4-8,10-14H2,2-3H3/t17-,18-,19-,20-,21+,22-,24-,25+,26+/m1/s1

> <PUBCHEM_IUPAC_INCHIKEY>
YGCYRQKJYWQXHG-RDNQFMDVSA-N

> <PUBCHEM_XLOGP3_AA>
2.6

> <PUBCHEM_EXACT_MASS>
480.27231823

> <PUBCHEM_MOLECULAR_FORMULA>
C26H40O8

> <PUBCHEM_MOLECULAR_WEIGHT>
480.6

> <PUBCHEM_OPENEYE_CAN_SMILES>
CC1(CCCC2(C1CCC(=C)C2CCC3=CCOC3=O)C)COC4C(C(C(C(O4)CO)O)O)O

> <PUBCHEM_OPENEYE_ISO_SMILES>
C[C@]1(CCC[C@@]2([C@@H]1CCC(=C)[C@H]2CCC3=CCOC3=O)C)CO[C@H]4[C@@H]([C@H]([C@@H]([C@H](O4)CO)O)O)O

> <PUBCHEM_CACTVS_TPSA>
126

> <PUBCHEM_MONOISOTOPIC_WEIGHT>
480.27231823

> <PUBCHEM_TOTAL_CHARGE>
0

> <PUBCHEM_HEAVY_ATOM_COUNT>
34

> <PUBCHEM_ATOM_DEF_STEREO_COUNT>
9

> <PUBCHEM_ATOM_UDEF_STEREO_COUNT>
0

> <PUBCHEM_BOND_DEF_STEREO_COUNT>
0

> <PUBCHEM_BOND_UDEF_STEREO_COUNT>
0

> <PUBCHEM_ISOTOPIC_ATOM_COUNT>
0

> <PUBCHEM_COMPONENT_COUNT>
1

> <PUBCHEM_CACTVS_TAUTO_COUNT>
1

> <PUBCHEM_COORDINATE_TYPE>
1
5
255

> <PUBCHEM_BONDANNOTATIONS>
25  1  5
10  35  6
11  21  6
12  22  5
29  34  5
27  3  6
28  5  5
30  6  6
9  17  5

$$$$
