9873850
  -OEChem-10012202412D

 72 76  0     1  0  0  0  0  0999 V2000
    6.8671   -2.4276    0.0000 O   0  0  0  0  0  0  0  0  0  0  0  0
    8.5991   -2.4276    0.0000 O   0  0  0  0  0  0  0  0  0  0  0  0
    6.8671   -5.4276    0.0000 O   0  0  0  0  0  0  0  0  0  0  0  0
    5.1350   -4.4276    0.0000 O   0  0  0  0  0  0  0  0  0  0  0  0
    8.5991   -4.4276    0.0000 O   0  0  0  0  0  0  0  0  0  0  0  0
    9.4651    2.0724    0.0000 O   0  0  0  0  0  0  0  0  0  0  0  0
    6.8671    1.5724    0.0000 O   0  0  0  0  0  0  0  0  0  0  0  0
    4.2690   -2.9276    0.0000 O   0  0  0  0  0  0  0  0  0  0  0  0
    6.8671   -1.4276    0.0000 O   0  0  0  0  0  0  0  0  0  0  0  0
   10.3312   -1.4276    0.0000 O   0  0  0  0  0  0  0  0  0  0  0  0
    7.7113    5.1039    0.0000 O   0  0  0  0  0  0  0  0  0  0  0  0
   11.2511    5.1175    0.0000 O   0  0  0  0  0  0  0  0  0  0  0  0
    6.0010    3.0724    0.0000 O   0  0  0  0  0  0  0  0  0  0  0  0
    4.2690   -0.9276    0.0000 O   0  0  0  0  0  0  0  0  0  0  0  0
    2.5369    2.0724    0.0000 O   0  0  0  0  0  0  0  0  0  0  0  0
    2.5369    0.0725    0.0000 O   0  0  0  0  0  0  0  0  0  0  0  0
    6.8671   -4.4276    0.0000 C   0  0  1  0  0  0  0  0  0  0  0  0
    6.0010   -3.9276    0.0000 C   0  0  1  0  0  0  0  0  0  0  0  0
    7.7331   -3.9276    0.0000 C   0  0  2  0  0  0  0  0  0  0  0  0
    6.0010   -2.9276    0.0000 C   0  0  1  0  0  0  0  0  0  0  0  0
    7.7331   -2.9276    0.0000 C   0  0  2  0  0  0  0  0  0  0  0  0
    8.5991    1.5724    0.0000 C   0  0  1  0  0  0  0  0  0  0  0  0
    7.7331    2.0724    0.0000 C   0  0  1  0  0  0  0  0  0  0  0  0
    5.1350   -2.4276    0.0000 C   0  0  0  0  0  0  0  0  0  0  0  0
    7.7331    3.0724    0.0000 C   0  0  0  0  0  0  0  0  0  0  0  0
    8.5991    0.5724    0.0000 C   0  0  0  0  0  0  0  0  0  0  0  0
    8.5991    3.5724    0.0000 C   0  0  0  0  0  0  0  0  0  0  0  0
    8.5991   -1.4276    0.0000 C   0  0  0  0  0  0  0  0  0  0  0  0
    9.4651    3.0724    0.0000 C   0  0  0  0  0  0  0  0  0  0  0  0
    7.7331    0.0725    0.0000 C   0  0  0  0  0  0  0  0  0  0  0  0
    9.4651    0.0725    0.0000 C   0  0  0  0  0  0  0  0  0  0  0  0
    7.7331   -0.9276    0.0000 C   0  0  0  0  0  0  0  0  0  0  0  0
    9.4651   -0.9276    0.0000 C   0  0  0  0  0  0  0  0  0  0  0  0
    8.5830    4.6140    0.0000 C   0  0  0  0  0  0  0  0  0  0  0  0
   10.3751    3.5793    0.0000 C   0  0  0  0  0  0  0  0  0  0  0  0
    9.4811    5.1417    0.0000 C   0  0  0  0  0  0  0  0  0  0  0  0
   10.3832    4.6209    0.0000 C   0  0  0  0  0  0  0  0  0  0  0  0
    6.0010    2.0724    0.0000 C   0  0  0  0  0  0  0  0  0  0  0  0
    5.1350    1.5724    0.0000 C   0  0  0  0  0  0  0  0  0  0  0  0
    4.2690    2.0724    0.0000 C   0  0  0  0  0  0  0  0  0  0  0  0
    5.1350    0.5724    0.0000 C   0  0  0  0  0  0  0  0  0  0  0  0
    4.2690    0.0725    0.0000 C   0  0  0  0  0  0  0  0  0  0  0  0
    3.4030    1.5724    0.0000 C   0  0  0  0  0  0  0  0  0  0  0  0
    3.4030    0.5724    0.0000 C   0  0  0  0  0  0  0  0  0  0  0  0
    7.4040   -4.7376    0.0000 H   0  0  0  0  0  0  0  0  0  0  0  0
    5.4641   -3.6176    0.0000 H   0  0  0  0  0  0  0  0  0  0  0  0
    8.2700   -3.6176    0.0000 H   0  0  0  0  0  0  0  0  0  0  0  0
    6.0010   -2.3076    0.0000 H   0  0  0  0  0  0  0  0  0  0  0  0
    7.7331   -2.3076    0.0000 H   0  0  0  0  0  0  0  0  0  0  0  0
    9.1360    1.2624    0.0000 H   0  0  0  0  0  0  0  0  0  0  0  0
    7.7331    1.4524    0.0000 H   0  0  0  0  0  0  0  0  0  0  0  0
    5.5335   -1.9526    0.0000 H   0  0  0  0  0  0  0  0  0  0  0  0
    4.7365   -1.9526    0.0000 H   0  0  0  0  0  0  0  0  0  0  0  0
    7.5210    3.6551    0.0000 H   0  0  0  0  0  0  0  0  0  0  0  0
    7.1225    2.9648    0.0000 H   0  0  0  0  0  0  0  0  0  0  0  0
    7.4040   -5.7376    0.0000 H   0  0  0  0  0  0  0  0  0  0  0  0
    5.1350   -5.0476    0.0000 H   0  0  0  0  0  0  0  0  0  0  0  0
    9.1360   -4.1175    0.0000 H   0  0  0  0  0  0  0  0  0  0  0  0
    7.1962    0.3824    0.0000 H   0  0  0  0  0  0  0  0  0  0  0  0
   10.0021    0.3824    0.0000 H   0  0  0  0  0  0  0  0  0  0  0  0
   10.9085    3.2631    0.0000 H   0  0  0  0  0  0  0  0  0  0  0  0
    3.7320   -2.6176    0.0000 H   0  0  0  0  0  0  0  0  0  0  0  0
    9.4787    5.7617    0.0000 H   0  0  0  0  0  0  0  0  0  0  0  0
    6.3301   -1.1176    0.0000 H   0  0  0  0  0  0  0  0  0  0  0  0
   10.8681   -1.1176    0.0000 H   0  0  0  0  0  0  0  0  0  0  0  0
    7.7041    5.7239    0.0000 H   0  0  0  0  0  0  0  0  0  0  0  0
   11.2535    5.7376    0.0000 H   0  0  0  0  0  0  0  0  0  0  0  0
    4.2690    2.6924    0.0000 H   0  0  0  0  0  0  0  0  0  0  0  0
    5.6720    0.2624    0.0000 H   0  0  0  0  0  0  0  0  0  0  0  0
    3.7320   -1.2376    0.0000 H   0  0  0  0  0  0  0  0  0  0  0  0
    2.5369    2.6924    0.0000 H   0  0  0  0  0  0  0  0  0  0  0  0
    2.0000    0.3824    0.0000 H   0  0  0  0  0  0  0  0  0  0  0  0
  1 20  1  0  0  0  0
  1 21  1  0  0  0  0
 21  2  1  6  0  0  0
  2 28  1  0  0  0  0
 17  3  1  1  0  0  0
  3 56  1  0  0  0  0
 18  4  1  6  0  0  0
  4 57  1  0  0  0  0
 19  5  1  6  0  0  0
  5 58  1  0  0  0  0
  6 22  1  0  0  0  0
  6 29  1  0  0  0  0
 23  7  1  6  0  0  0
  7 38  1  0  0  0  0
  8 24  1  0  0  0  0
  8 62  1  0  0  0  0
  9 32  1  0  0  0  0
  9 64  1  0  0  0  0
 10 33  1  0  0  0  0
 10 65  1  0  0  0  0
 11 34  1  0  0  0  0
 11 66  1  0  0  0  0
 12 37  1  0  0  0  0
 12 67  1  0  0  0  0
 13 38  2  0  0  0  0
 14 42  1  0  0  0  0
 14 70  1  0  0  0  0
 15 43  1  0  0  0  0
 15 71  1  0  0  0  0
 16 44  1  0  0  0  0
 16 72  1  0  0  0  0
 17 18  1  0  0  0  0
 17 19  1  0  0  0  0
 17 45  1  0  0  0  0
 18 20  1  0  0  0  0
 18 46  1  0  0  0  0
 19 21  1  0  0  0  0
 19 47  1  0  0  0  0
 20 24  1  1  0  0  0
 20 48  1  0  0  0  0
 21 49  1  0  0  0  0
 22 23  1  0  0  0  0
 22 26  1  6  0  0  0
 22 50  1  0  0  0  0
 23 25  1  0  0  0  0
 23 51  1  0  0  0  0
 24 52  1  0  0  0  0
 24 53  1  0  0  0  0
 25 27  1  0  0  0  0
 25 54  1  0  0  0  0
 25 55  1  0  0  0  0
 26 30  2  0  0  0  0
 26 31  1  0  0  0  0
 27 29  1  0  0  0  0
 27 34  2  0  0  0  0
 28 32  2  0  0  0  0
 28 33  1  0  0  0  0
 29 35  2  0  0  0  0
 30 32  1  0  0  0  0
 30 59  1  0  0  0  0
 31 33  2  0  0  0  0
 31 60  1  0  0  0  0
 34 36  1  0  0  0  0
 35 37  1  0  0  0  0
 35 61  1  0  0  0  0
 36 37  2  0  0  0  0
 36 63  1  0  0  0  0
 38 39  1  0  0  0  0
 39 40  2  0  0  0  0
 39 41  1  0  0  0  0
 40 43  1  0  0  0  0
 40 68  1  0  0  0  0
 41 42  2  0  0  0  0
 41 69  1  0  0  0  0
 42 44  1  0  0  0  0
 43 44  2  0  0  0  0
M  END
> <PUBCHEM_COMPOUND_CID>
9873850

> <PUBCHEM_COMPOUND_CANONICALIZED>
1

> <PUBCHEM_CACTVS_COMPLEXITY>
948

> <PUBCHEM_CACTVS_HBOND_ACCEPTOR>
16

> <PUBCHEM_CACTVS_HBOND_DONOR>
11

> <PUBCHEM_CACTVS_ROTATABLE_BOND>
7

> <PUBCHEM_CACTVS_SUBSKEYS>
AAADceB4PgAAAAAAAAAAAAAAAAAAAAAAAAA0aMECAAAAAACRUAAAGgAACAAADBSwmAMwDoAABgCIAiDSCAACCAAkIAAAiAEGiMgdNzKGNRqieSOlwBUPuYfK7PzOIAABCAAIQABAAAIQABCAAAAAAAAAAA==

> <PUBCHEM_IUPAC_OPENEYE_NAME>
[(2R,3R)-2-[3,5-dihydroxy-4-[(2R,3R,4S,5S,6R)-3,4,5-trihydroxy-6-(hydroxymethyl)tetrahydropyran-2-yl]oxy-phenyl]-5,7-dihydroxy-chroman-3-yl] 3,4,5-trihydroxybenzoate

> <PUBCHEM_IUPAC_CAS_NAME>
3,4,5-trihydroxybenzoic acid [(2R,3R)-2-[3,5-dihydroxy-4-[[(2R,3R,4S,5S,6R)-3,4,5-trihydroxy-6-(hydroxymethyl)-2-oxanyl]oxy]phenyl]-5,7-dihydroxy-3,4-dihydro-2H-1-benzopyran-3-yl] ester

> <PUBCHEM_IUPAC_NAME_MARKUP>
[(2<I>R</I>,3<I>R</I>)-2-[3,5-dihydroxy-4-[(2<I>R</I>,3<I>R</I>,4<I>S</I>,5<I>S</I>,6<I>R</I>)-3,4,5-trihydroxy-6-(hydroxymethyl)oxan-2-yl]oxyphenyl]-5,7-dihydroxy-3,4-dihydro-2<I>H</I>-chromen-3-yl] 3,4,5-trihydroxybenzoate

> <PUBCHEM_IUPAC_NAME>
[(2R,3R)-2-[3,5-dihydroxy-4-[(2R,3R,4S,5S,6R)-3,4,5-trihydroxy-6-(hydroxymethyl)oxan-2-yl]oxyphenyl]-5,7-dihydroxy-3,4-dihydro-2H-chromen-3-yl] 3,4,5-trihydroxybenzoate

> <PUBCHEM_IUPAC_SYSTEMATIC_NAME>
[(2R,3R)-2-[4-[(2R,3R,4S,5S,6R)-6-(hydroxymethyl)-3,4,5-tris(oxidanyl)oxan-2-yl]oxy-3,5-bis(oxidanyl)phenyl]-5,7-bis(oxidanyl)-3,4-dihydro-2H-chromen-3-yl] 3,4,5-tris(oxidanyl)benzoate

> <PUBCHEM_IUPAC_TRADITIONAL_NAME>
3,4,5-trihydroxybenzoic acid [(2R,3R)-2-[3,5-dihydroxy-4-[(2R,3R,4S,5S,6R)-3,4,5-trihydroxy-6-methylol-tetrahydropyran-2-yl]oxy-phenyl]-5,7-dihydroxy-chroman-3-yl] ester

> <PUBCHEM_IUPAC_INCHI>
InChI=1S/C28H28O16/c29-8-20-22(37)23(38)24(39)28(43-20)44-26-16(34)1-9(2-17(26)35)25-19(7-12-13(31)5-11(30)6-18(12)41-25)42-27(40)10-3-14(32)21(36)15(33)4-10/h1-6,19-20,22-25,28-39H,7-8H2/t19-,20-,22-,23+,24-,25-,28-/m1/s1

> <PUBCHEM_IUPAC_INCHIKEY>
RJQRIWDKPJUWQX-MLJZWJJTSA-N

> <PUBCHEM_XLOGP3_AA>
0.4

> <PUBCHEM_EXACT_MASS>
620.13773480

> <PUBCHEM_MOLECULAR_FORMULA>
C28H28O16

> <PUBCHEM_MOLECULAR_WEIGHT>
620.5

> <PUBCHEM_OPENEYE_CAN_SMILES>
C1C(C(OC2=CC(=CC(=C21)O)O)C3=CC(=C(C(=C3)O)OC4C(C(C(C(O4)CO)O)O)O)O)OC(=O)C5=CC(=C(C(=C5)O)O)O

> <PUBCHEM_OPENEYE_ISO_SMILES>
C1[C@H]([C@H](OC2=CC(=CC(=C21)O)O)C3=CC(=C(C(=C3)O)O[C@@H]4[C@@H]([C@H]([C@@H]([C@H](O4)CO)O)O)O)O)OC(=O)C5=CC(=C(C(=C5)O)O)O

> <PUBCHEM_CACTVS_TPSA>
277

> <PUBCHEM_MONOISOTOPIC_WEIGHT>
620.13773480

> <PUBCHEM_TOTAL_CHARGE>
0

> <PUBCHEM_HEAVY_ATOM_COUNT>
44

> <PUBCHEM_ATOM_DEF_STEREO_COUNT>
7

> <PUBCHEM_ATOM_UDEF_STEREO_COUNT>
0

> <PUBCHEM_BOND_DEF_STEREO_COUNT>
0

> <PUBCHEM_BOND_UDEF_STEREO_COUNT>
0

> <PUBCHEM_ISOTOPIC_ATOM_COUNT>
0

> <PUBCHEM_COMPONENT_COUNT>
1

> <PUBCHEM_CACTVS_TAUTO_COUNT>
-1

> <PUBCHEM_COORDINATE_TYPE>
1
5
255

> <PUBCHEM_BONDANNOTATIONS>
21  2  6
20  24  5
22  26  6
26  30  8
26  31  8
27  29  8
27  34  8
28  32  8
28  33  8
29  35  8
17  3  5
30  32  8
31  33  8
34  36  8
35  37  8
36  37  8
39  40  8
39  41  8
18  4  6
40  43  8
41  42  8
42  44  8
43  44  8
19  5  6
23  7  6

$$$$
